version 2
run General-1-20171027-11:40:40-11653
attr configname General
attr datetime 20171027-11:40:40
attr experiment General
attr inifile omnetpp.ini
attr iterationvars "$bitrate=6, $packetLength=2268"
attr iterationvarsf bitrate=6,packetLength=2268-
attr measurement "$bitrate=6, $packetLength=2268"
attr network Throughput
attr processid 11653
attr repetition 0
attr replication #0
attr resultdir results
attr runnumber 1
attr seedset 1
itervar bitrate 6
itervar packetLength 2268
param *.*Host.ipv4.arpType "\"GlobalARP\""
param *.*Host.wlan[*].mgmtType "\"Ieee80211MgmtAdhoc\""
param *.*Host.wlan[*].opMode "\"g(erp)\""
param *.*Host.wlan[*].bitrate 6Mbps
param *.*Host.wlan[*].radio.separateReceptionParts true
param *.*Host.wlan[*].radio.separateTransmissionParts true
param *.sourceHost.numApps 1
param *.sourceHost.app[0].typename "\"UDPBasicApp\""
param *.sourceHost.app[*].destAddresses "\"destinationHost\""
param *.sourceHost.app[*].destPort 5000
param *.sourceHost.app[*].messageLength 2268byte
param *.sourceHost.app[*].packetName "\"UDPData-\""
param *.sourceHost.app[*].startTime 0s
param *.sourceHost.app[*].sendInterval "2268 * 8 / 6 * 1us"
param *.destinationHost.numApps 1
param *.destinationHost.app[0].typename "\"UDPSink\""
param *.destinationHost.app[*].localPort 5000

scalar Throughput.sourceHost.lo[0].lo rcvdPkFromHL:count 0
attr interpolationmode none
attr source packetReceivedFromUpper
attr title "packets received from higher layer, count"
scalar Throughput.sourceHost.lo[0].lo rcvdPkFromHL:sum(packetBytes) 0
attr interpolationmode none
attr source packetReceivedFromUpper
attr title "packets received from higher layer, sum(packetBytes)"
scalar Throughput.sourceHost.lo[0].lo passedUpPk:count 0
attr interpolationmode none
attr source packetSentToUpper
attr title "packets passed to higher layer, count"
scalar Throughput.sourceHost.lo[0].lo passedUpPk:sum(packetBytes) 0
attr interpolationmode none
attr source packetSentToUpper
attr title "packets passed to higher layer, sum(packetBytes)"
scalar Throughput.sourceHost.wlan[0].mac packetDropIncorrectlyReceived:count 0
attr interpolationmode none
attr source packetDropReasonIsIncorrectlyReceived(packetDrop)
attr title "packet drop: incorrectly received, count"
scalar Throughput.sourceHost.wlan[0].mac packetDropIncorrectlyReceived:sum(packetBytes) 0
attr interpolationmode none
attr source packetDropReasonIsIncorrectlyReceived(packetDrop)
attr title "packet drop: incorrectly received, sum(packetBytes)"
scalar Throughput.sourceHost.wlan[0].mac packetDropNotAddressedToUs:count 0
attr interpolationmode none
attr source packetDropReasonIsNotAddressedToUs(packetDrop)
attr title "packet drop: not addressed to us, count"
scalar Throughput.sourceHost.wlan[0].mac packetDropNotAddressedToUs:sum(packetBytes) 0
attr interpolationmode none
attr source packetDropReasonIsNotAddressedToUs(packetDrop)
attr title "packet drop: not addressed to us, sum(packetBytes)"
scalar Throughput.sourceHost.wlan[0].mac packetDropQueueOverflow:count 25
attr interpolationmode none
attr source packetDropReasonIsQueueOverflow(packetDrop)
attr title "packet drop: queue overflow, count"
scalar Throughput.sourceHost.wlan[0].mac packetDropQueueOverflow:sum(packetBytes) 58300
attr interpolationmode none
attr source packetDropReasonIsQueueOverflow(packetDrop)
attr title "packet drop: queue overflow, sum(packetBytes)"
scalar Throughput.sourceHost.wlan[0].mac packetDropRetryLimitReached:count 0
attr interpolationmode none
attr source packetDropReasonIsRetryLimitReached(packetDrop)
attr title "packet drop: retry limit reached, count"
scalar Throughput.sourceHost.wlan[0].mac packetDropRetryLimitReached:sum(packetBytes) 0
attr interpolationmode none
attr source packetDropReasonIsRetryLimitReached(packetDrop)
attr title "packet drop: retry limit reached, sum(packetBytes)"
scalar Throughput.sourceHost.wlan[0].mac linkBreak:count 0
attr interpolationmode none
attr source linkBreak
attr title "link break, count"
scalar Throughput.sourceHost.wlan[0].mac rcvdPkFromLL:count 582
attr interpolationmode none
attr source packetReceivedFromLower
attr title "packets received from lower layer, count"
scalar Throughput.sourceHost.wlan[0].mac rcvdPkFromLL:sum(packetBytes) 8148
attr interpolationmode none
attr source packetReceivedFromLower
attr title "packets received from lower layer, sum(packetBytes)"
scalar Throughput.sourceHost.wlan[0].mac sentDownPk:count 583
attr interpolationmode none
attr source packetSentToLower
attr title "packets sent to lower layer, count"
scalar Throughput.sourceHost.wlan[0].mac sentDownPk:sum(packetBytes) 688260
attr interpolationmode none
attr source packetSentToLower
attr title "packets sent to lower layer, sum(packetBytes)"
scalar Throughput.sourceHost.wlan[0].mac rcvdPkFromHL:count 331
attr interpolationmode none
attr source packetReceivedFromUpper
attr title "packets received from higher layer, count"
scalar Throughput.sourceHost.wlan[0].mac rcvdPkFromHL:sum(packetBytes) 762624
attr interpolationmode none
attr source packetReceivedFromUpper
attr title "packets received from higher layer, sum(packetBytes)"
scalar Throughput.sourceHost.wlan[0].mac passedUpPk:count 0
attr interpolationmode none
attr source packetSentToUpper
attr title "packets passed to higher layer, count"
scalar Throughput.sourceHost.wlan[0].mac passedUpPk:sum(packetBytes) 0
attr interpolationmode none
attr source packetSentToUpper
attr title "packets passed to higher layer, sum(packetBytes)"
statistic Throughput.sourceHost.wlan[0].radio radioChannel:histogram
field count 1
field mean 0
field stddev -nan
field min 0
field max 0
field sum 0
field sqrsum 0
attr interpolationmode sample-hold
attr source radioChannelChanged
attr title "Radio channel, histogram"
bin	-inf	0
bin	-0.5	0
bin	-0.46666666666667	0
bin	-0.43333333333333	0
bin	-0.4	0
bin	-0.36666666666667	0
bin	-0.33333333333333	0
bin	-0.3	0
bin	-0.26666666666667	0
bin	-0.23333333333333	0
bin	-0.2	0
bin	-0.16666666666667	0
bin	-0.13333333333333	0
bin	-0.1	0
bin	-0.066666666666667	0
bin	-0.033333333333333	0
bin	0	1
bin	0.033333333333333	0
bin	0.066666666666667	0
bin	0.1	0
bin	0.13333333333333	0
bin	0.16666666666667	0
bin	0.2	0
bin	0.23333333333333	0
bin	0.26666666666667	0
bin	0.3	0
bin	0.33333333333333	0
bin	0.36666666666667	0
bin	0.4	0
bin	0.43333333333333	0
bin	0.46666666666667	0
bin	0.5	0
scalar Throughput.sourceHost.wlan[0].radio transmissionState:count 2330
attr interpolationmode sample-hold
attr source transmissionStateChanged
attr title "Radio transmission state, count"
scalar Throughput.sourceHost.wlan[0].radio receptionState:count 2330
attr interpolationmode sample-hold
attr source receptionStateChanged
attr title "Radio reception state, count"
scalar Throughput.sourceHost.wlan[0].radio radioMode:count 1167
attr interpolationmode sample-hold
attr source radioModeChanged
attr title "Radio mode, count"
statistic Throughput.sourceHost.wlan[0].radio symbolErrorRate:histogram
field count 0
field mean -nan
field stddev -nan
field min -nan
field max -nan
field sum 0
field sqrsum 0
attr source symbolErrorRate
attr title "Symbol error rate, histogram"
bin	-inf	0
bin	-0.5	0
bin	-0.46666666666667	0
bin	-0.43333333333333	0
bin	-0.4	0
bin	-0.36666666666667	0
bin	-0.33333333333333	0
bin	-0.3	0
bin	-0.26666666666667	0
bin	-0.23333333333333	0
bin	-0.2	0
bin	-0.16666666666667	0
bin	-0.13333333333333	0
bin	-0.1	0
bin	-0.066666666666667	0
bin	-0.033333333333333	0
bin	0	0
bin	0.033333333333333	0
bin	0.066666666666667	0
bin	0.1	0
bin	0.13333333333333	0
bin	0.16666666666667	0
bin	0.2	0
bin	0.23333333333333	0
bin	0.26666666666667	0
bin	0.3	0
bin	0.33333333333333	0
bin	0.36666666666667	0
bin	0.4	0
bin	0.43333333333333	0
bin	0.46666666666667	0
bin	0.5	0
statistic Throughput.sourceHost.wlan[0].radio bitErrorRate:histogram
field count 0
field mean -nan
field stddev -nan
field min -nan
field max -nan
field sum 0
field sqrsum 0
attr source bitErrorRate
attr title "Bit error rate, histogram"
bin	-inf	0
bin	-0.5	0
bin	-0.46666666666667	0
bin	-0.43333333333333	0
bin	-0.4	0
bin	-0.36666666666667	0
bin	-0.33333333333333	0
bin	-0.3	0
bin	-0.26666666666667	0
bin	-0.23333333333333	0
bin	-0.2	0
bin	-0.16666666666667	0
bin	-0.13333333333333	0
bin	-0.1	0
bin	-0.066666666666667	0
bin	-0.033333333333333	0
bin	0	0
bin	0.033333333333333	0
bin	0.066666666666667	0
bin	0.1	0
bin	0.13333333333333	0
bin	0.16666666666667	0
bin	0.2	0
bin	0.23333333333333	0
bin	0.26666666666667	0
bin	0.3	0
bin	0.33333333333333	0
bin	0.36666666666667	0
bin	0.4	0
bin	0.43333333333333	0
bin	0.46666666666667	0
bin	0.5	0
statistic Throughput.sourceHost.wlan[0].radio packetErrorRate:histogram
field count 582
field mean 0
field stddev 0
field min 0
field max 0
field sum 0
field sqrsum 0
attr source packetErrorRate
attr title "Packet error rate, histogram"
bin	-inf	0
bin	-0.5	0
bin	-0.46666666666667	0
bin	-0.43333333333333	0
bin	-0.4	0
bin	-0.36666666666667	0
bin	-0.33333333333333	0
bin	-0.3	0
bin	-0.26666666666667	0
bin	-0.23333333333333	0
bin	-0.2	0
bin	-0.16666666666667	0
bin	-0.13333333333333	0
bin	-0.1	0
bin	-0.066666666666667	0
bin	-0.033333333333333	0
bin	0	582
bin	0.033333333333333	0
bin	0.066666666666667	0
bin	0.1	0
bin	0.13333333333333	0
bin	0.16666666666667	0
bin	0.2	0
bin	0.23333333333333	0
bin	0.26666666666667	0
bin	0.3	0
bin	0.33333333333333	0
bin	0.36666666666667	0
bin	0.4	0
bin	0.43333333333333	0
bin	0.46666666666667	0
bin	0.5	0
statistic Throughput.sourceHost.wlan[0].radio minSNIR:histogram
field count 582
field mean 195657755.21039
field stddev 0
field min 195657755.21039
field max 195657755.21039
field sum 113872813532.45
field sqrsum 2.2280099075249e+19
attr source minSNIR
attr title "Min SNIR, histogram"
bin	-inf	0
bin	195657754.71039	0
bin	195657754.74372	0
bin	195657754.77705	0
bin	195657754.81039	0
bin	195657754.84372	0
bin	195657754.87705	0
bin	195657754.91039	0
bin	195657754.94372	0
bin	195657754.97705	0
bin	195657755.01039	0
bin	195657755.04372	0
bin	195657755.07705	0
bin	195657755.11039	0
bin	195657755.14372	0
bin	195657755.17705	0
bin	195657755.21039	582
bin	195657755.24372	0
bin	195657755.27705	0
bin	195657755.31039	0
bin	195657755.34372	0
bin	195657755.37705	0
bin	195657755.41039	0
bin	195657755.44372	0
bin	195657755.47705	0
bin	195657755.51039	0
bin	195657755.54372	0
bin	195657755.57705	0
bin	195657755.61039	0
bin	195657755.64372	0
bin	195657755.67705	0
bin	195657755.71039	0
scalar Throughput.sourceHost.ipv4.ip packetDropAddressResolutionFailed:count 0
attr interpolationmode none
attr source packetDropReasonIsAddressResolutionFailed(packetDrop)
attr title "packet drop: address resolution failed, count"
scalar Throughput.sourceHost.ipv4.ip packetDropAddressResolutionFailed:sum(packetBytes) 0
attr interpolationmode none
attr source packetDropReasonIsAddressResolutionFailed(packetDrop)
attr title "packet drop: address resolution failed, sum(packetBytes)"
scalar Throughput.sourceHost.ipv4.ip packetDropHopLimitReached:count 0
attr interpolationmode none
attr source packetDropReasonIsHopLimitReached(packetDrop)
attr title "packet drop: hop limit reached, count"
scalar Throughput.sourceHost.ipv4.ip packetDropHopLimitReached:sum(packetBytes) 0
attr interpolationmode none
attr source packetDropReasonIsHopLimitReached(packetDrop)
attr title "packet drop: hop limit reached, sum(packetBytes)"
scalar Throughput.sourceHost.ipv4.ip packetDropForwardingDisabled:count 0
attr interpolationmode none
attr source packetDropReasonIsForwardingDisabled(packetDrop)
attr title "packet drop: forwarding disabled, count"
scalar Throughput.sourceHost.ipv4.ip packetDropForwardingDisabled:sum(packetBytes) 0
attr interpolationmode none
attr source packetDropReasonIsForwardingDisabled(packetDrop)
attr title "packet drop: forwarding disabled, sum(packetBytes)"
scalar Throughput.sourceHost.ipv4.ip packetDropNoInterfaceFound:count 0
attr interpolationmode none
attr source packetDropReasonIsNoInterfaceFound(packetDrop)
attr title "packet drop: no interface found, count"
scalar Throughput.sourceHost.ipv4.ip packetDropNoInterfaceFound:sum(packetBytes) 0
attr interpolationmode none
attr source packetDropReasonIsNoInterfaceFound(packetDrop)
attr title "packet drop: no interface found, sum(packetBytes)"
scalar Throughput.sourceHost.ipv4.ip packetDropNoRouteFound:count 0
attr interpolationmode none
attr source packetDropReasonIsNoRouteFound(packetDrop)
attr title "packet drop: no route found, count"
scalar Throughput.sourceHost.ipv4.ip packetDropNoRouteFound:sum(packetBytes) 0
attr interpolationmode none
attr source packetDropReasonIsNoRouteFound(packetDrop)
attr title "packet drop: no route found, sum(packetBytes)"
scalar Throughput.sourceHost.ipv4.ip packetDropUndefined:count 0
attr interpolationmode none
attr source packetDropReasonIsUndefined(packetDrop)
attr title "packet drop: undefined, count"
scalar Throughput.sourceHost.ipv4.ip packetDropUndefined:sum(packetBytes) 0
attr interpolationmode none
attr source packetDropReasonIsUndefined(packetDrop)
attr title "packet drop: undefined, sum(packetBytes)"
scalar Throughput.sourceHost.udp droppedPkBadChecksum:count 0
attr interpolationmode none
attr title "packets dropped (checksum error), count"
scalar Throughput.sourceHost.udp droppedPkWrongPort:count 0
attr interpolationmode none
attr title "packets dropped (wrong port), count"
scalar Throughput.sourceHost.udp passedUpPk:count 0
attr interpolationmode none
attr title "packets passed up, count"
scalar Throughput.sourceHost.udp rcvdPk:count 0
attr interpolationmode none
attr source rcvdPk
attr title "packets received, count"
scalar Throughput.sourceHost.udp rcvdPk:sum(packetBytes) 0
attr interpolationmode none
attr source rcvdPk
attr title "packets received, sum(packetBytes)"
scalar Throughput.sourceHost.udp sentPk:count 331
attr interpolationmode none
attr source sentPk
attr title "packets sent, count"
scalar Throughput.sourceHost.udp sentPk:sum(packetBytes) 753356
attr interpolationmode none
attr source sentPk
attr title "packets sent, sum(packetBytes)"
scalar Throughput.sourceHost.app[0] "packets sent" 331
scalar Throughput.sourceHost.app[0] "packets received" 0
scalar Throughput.sourceHost.app[0] rcvdPk:count 0
attr interpolationmode none
attr source rcvdPk
attr title "packets received, count"
scalar Throughput.sourceHost.app[0] rcvdPk:sum(packetBytes) 0
attr interpolationmode none
attr source rcvdPk
attr title "packets received, sum(packetBytes)"
scalar Throughput.sourceHost.app[0] throughput:mean -nan
attr source throughput(rcvdPk)
attr title "throughput, mean"
attr unit bps
statistic Throughput.sourceHost.app[0] rcvdPkLifetime:stats
field count 0
field mean -nan
field stddev -nan
field min -nan
field max -nan
field sum 0
field sqrsum 0
attr interpolationmode none
attr source messageAge(rcvdPk)
attr title "received packet lifetime, stats"
attr unit s
scalar Throughput.sourceHost.app[0] sentPk:count 331
attr interpolationmode none
attr source sentPk
attr title "packets sent, count"
scalar Throughput.sourceHost.app[0] sentPk:sum(packetBytes) 750708
attr interpolationmode none
attr source sentPk
attr title "packets sent, sum(packetBytes)"
scalar Throughput.destinationHost.lo[0].lo rcvdPkFromHL:count 0
attr interpolationmode none
attr source packetReceivedFromUpper
attr title "packets received from higher layer, count"
scalar Throughput.destinationHost.lo[0].lo rcvdPkFromHL:sum(packetBytes) 0
attr interpolationmode none
attr source packetReceivedFromUpper
attr title "packets received from higher layer, sum(packetBytes)"
scalar Throughput.destinationHost.lo[0].lo passedUpPk:count 0
attr interpolationmode none
attr source packetSentToUpper
attr title "packets passed to higher layer, count"
scalar Throughput.destinationHost.lo[0].lo passedUpPk:sum(packetBytes) 0
attr interpolationmode none
attr source packetSentToUpper
attr title "packets passed to higher layer, sum(packetBytes)"
scalar Throughput.destinationHost.wlan[0].mac packetDropIncorrectlyReceived:count 0
attr interpolationmode none
attr source packetDropReasonIsIncorrectlyReceived(packetDrop)
attr title "packet drop: incorrectly received, count"
scalar Throughput.destinationHost.wlan[0].mac packetDropIncorrectlyReceived:sum(packetBytes) 0
attr interpolationmode none
attr source packetDropReasonIsIncorrectlyReceived(packetDrop)
attr title "packet drop: incorrectly received, sum(packetBytes)"
scalar Throughput.destinationHost.wlan[0].mac packetDropNotAddressedToUs:count 0
attr interpolationmode none
attr source packetDropReasonIsNotAddressedToUs(packetDrop)
attr title "packet drop: not addressed to us, count"
scalar Throughput.destinationHost.wlan[0].mac packetDropNotAddressedToUs:sum(packetBytes) 0
attr interpolationmode none
attr source packetDropReasonIsNotAddressedToUs(packetDrop)
attr title "packet drop: not addressed to us, sum(packetBytes)"
scalar Throughput.destinationHost.wlan[0].mac packetDropQueueOverflow:count 0
attr interpolationmode none
attr source packetDropReasonIsQueueOverflow(packetDrop)
attr title "packet drop: queue overflow, count"
scalar Throughput.destinationHost.wlan[0].mac packetDropQueueOverflow:sum(packetBytes) 0
attr interpolationmode none
attr source packetDropReasonIsQueueOverflow(packetDrop)
attr title "packet drop: queue overflow, sum(packetBytes)"
scalar Throughput.destinationHost.wlan[0].mac packetDropRetryLimitReached:count 0
attr interpolationmode none
attr source packetDropReasonIsRetryLimitReached(packetDrop)
attr title "packet drop: retry limit reached, count"
scalar Throughput.destinationHost.wlan[0].mac packetDropRetryLimitReached:sum(packetBytes) 0
attr interpolationmode none
attr source packetDropReasonIsRetryLimitReached(packetDrop)
attr title "packet drop: retry limit reached, sum(packetBytes)"
scalar Throughput.destinationHost.wlan[0].mac linkBreak:count 0
attr interpolationmode none
attr source linkBreak
attr title "link break, count"
scalar Throughput.destinationHost.wlan[0].mac rcvdPkFromLL:count 582
attr interpolationmode none
attr source packetReceivedFromLower
attr title "packets received from lower layer, count"
scalar Throughput.destinationHost.wlan[0].mac rcvdPkFromLL:sum(packetBytes) 686760
attr interpolationmode none
attr source packetReceivedFromLower
attr title "packets received from lower layer, sum(packetBytes)"
scalar Throughput.destinationHost.wlan[0].mac sentDownPk:count 582
attr interpolationmode none
attr source packetSentToLower
attr title "packets sent to lower layer, count"
scalar Throughput.destinationHost.wlan[0].mac sentDownPk:sum(packetBytes) 8148
attr interpolationmode none
attr source packetSentToLower
attr title "packets sent to lower layer, sum(packetBytes)"
scalar Throughput.destinationHost.wlan[0].mac rcvdPkFromHL:count 0
attr interpolationmode none
attr source packetReceivedFromUpper
attr title "packets received from higher layer, count"
scalar Throughput.destinationHost.wlan[0].mac rcvdPkFromHL:sum(packetBytes) 0
attr interpolationmode none
attr source packetReceivedFromUpper
attr title "packets received from higher layer, sum(packetBytes)"
scalar Throughput.destinationHost.wlan[0].mac passedUpPk:count 291
attr interpolationmode none
attr source packetSentToUpper
attr title "packets passed to higher layer, count"
scalar Throughput.destinationHost.wlan[0].mac passedUpPk:sum(packetBytes) 670464
attr interpolationmode none
attr source packetSentToUpper
attr title "packets passed to higher layer, sum(packetBytes)"
statistic Throughput.destinationHost.wlan[0].radio radioChannel:histogram
field count 1
field mean 0
field stddev -nan
field min 0
field max 0
field sum 0
field sqrsum 0
attr interpolationmode sample-hold
attr source radioChannelChanged
attr title "Radio channel, histogram"
bin	-inf	0
bin	-0.5	0
bin	-0.46666666666667	0
bin	-0.43333333333333	0
bin	-0.4	0
bin	-0.36666666666667	0
bin	-0.33333333333333	0
bin	-0.3	0
bin	-0.26666666666667	0
bin	-0.23333333333333	0
bin	-0.2	0
bin	-0.16666666666667	0
bin	-0.13333333333333	0
bin	-0.1	0
bin	-0.066666666666667	0
bin	-0.033333333333333	0
bin	0	1
bin	0.033333333333333	0
bin	0.066666666666667	0
bin	0.1	0
bin	0.13333333333333	0
bin	0.16666666666667	0
bin	0.2	0
bin	0.23333333333333	0
bin	0.26666666666667	0
bin	0.3	0
bin	0.33333333333333	0
bin	0.36666666666667	0
bin	0.4	0
bin	0.43333333333333	0
bin	0.46666666666667	0
bin	0.5	0
scalar Throughput.destinationHost.wlan[0].radio transmissionState:count 2328
attr interpolationmode sample-hold
attr source transmissionStateChanged
attr title "Radio transmission state, count"
scalar Throughput.destinationHost.wlan[0].radio receptionState:count 2330
attr interpolationmode sample-hold
attr source receptionStateChanged
attr title "Radio reception state, count"
scalar Throughput.destinationHost.wlan[0].radio radioMode:count 1166
attr interpolationmode sample-hold
attr source radioModeChanged
attr title "Radio mode, count"
statistic Throughput.destinationHost.wlan[0].radio symbolErrorRate:histogram
field count 0
field mean -nan
field stddev -nan
field min -nan
field max -nan
field sum 0
field sqrsum 0
attr source symbolErrorRate
attr title "Symbol error rate, histogram"
bin	-inf	0
bin	-0.5	0
bin	-0.46666666666667	0
bin	-0.43333333333333	0
bin	-0.4	0
bin	-0.36666666666667	0
bin	-0.33333333333333	0
bin	-0.3	0
bin	-0.26666666666667	0
bin	-0.23333333333333	0
bin	-0.2	0
bin	-0.16666666666667	0
bin	-0.13333333333333	0
bin	-0.1	0
bin	-0.066666666666667	0
bin	-0.033333333333333	0
bin	0	0
bin	0.033333333333333	0
bin	0.066666666666667	0
bin	0.1	0
bin	0.13333333333333	0
bin	0.16666666666667	0
bin	0.2	0
bin	0.23333333333333	0
bin	0.26666666666667	0
bin	0.3	0
bin	0.33333333333333	0
bin	0.36666666666667	0
bin	0.4	0
bin	0.43333333333333	0
bin	0.46666666666667	0
bin	0.5	0
statistic Throughput.destinationHost.wlan[0].radio bitErrorRate:histogram
field count 0
field mean -nan
field stddev -nan
field min -nan
field max -nan
field sum 0
field sqrsum 0
attr source bitErrorRate
attr title "Bit error rate, histogram"
bin	-inf	0
bin	-0.5	0
bin	-0.46666666666667	0
bin	-0.43333333333333	0
bin	-0.4	0
bin	-0.36666666666667	0
bin	-0.33333333333333	0
bin	-0.3	0
bin	-0.26666666666667	0
bin	-0.23333333333333	0
bin	-0.2	0
bin	-0.16666666666667	0
bin	-0.13333333333333	0
bin	-0.1	0
bin	-0.066666666666667	0
bin	-0.033333333333333	0
bin	0	0
bin	0.033333333333333	0
bin	0.066666666666667	0
bin	0.1	0
bin	0.13333333333333	0
bin	0.16666666666667	0
bin	0.2	0
bin	0.23333333333333	0
bin	0.26666666666667	0
bin	0.3	0
bin	0.33333333333333	0
bin	0.36666666666667	0
bin	0.4	0
bin	0.43333333333333	0
bin	0.46666666666667	0
bin	0.5	0
statistic Throughput.destinationHost.wlan[0].radio packetErrorRate:histogram
field count 582
field mean 0
field stddev 0
field min 0
field max 0
field sum 0
field sqrsum 0
attr source packetErrorRate
attr title "Packet error rate, histogram"
bin	-inf	0
bin	-0.5	0
bin	-0.46666666666667	0
bin	-0.43333333333333	0
bin	-0.4	0
bin	-0.36666666666667	0
bin	-0.33333333333333	0
bin	-0.3	0
bin	-0.26666666666667	0
bin	-0.23333333333333	0
bin	-0.2	0
bin	-0.16666666666667	0
bin	-0.13333333333333	0
bin	-0.1	0
bin	-0.066666666666667	0
bin	-0.033333333333333	0
bin	0	582
bin	0.033333333333333	0
bin	0.066666666666667	0
bin	0.1	0
bin	0.13333333333333	0
bin	0.16666666666667	0
bin	0.2	0
bin	0.23333333333333	0
bin	0.26666666666667	0
bin	0.3	0
bin	0.33333333333333	0
bin	0.36666666666667	0
bin	0.4	0
bin	0.43333333333333	0
bin	0.46666666666667	0
bin	0.5	0
statistic Throughput.destinationHost.wlan[0].radio minSNIR:histogram
field count 582
field mean 195657755.21039
field stddev 0
field min 195657755.21039
field max 195657755.21039
field sum 113872813532.45
field sqrsum 2.2280099075249e+19
attr source minSNIR
attr title "Min SNIR, histogram"
bin	-inf	0
bin	195657754.71039	0
bin	195657754.74372	0
bin	195657754.77705	0
bin	195657754.81039	0
bin	195657754.84372	0
bin	195657754.87705	0
bin	195657754.91039	0
bin	195657754.94372	0
bin	195657754.97705	0
bin	195657755.01039	0
bin	195657755.04372	0
bin	195657755.07705	0
bin	195657755.11039	0
bin	195657755.14372	0
bin	195657755.17705	0
bin	195657755.21039	582
bin	195657755.24372	0
bin	195657755.27705	0
bin	195657755.31039	0
bin	195657755.34372	0
bin	195657755.37705	0
bin	195657755.41039	0
bin	195657755.44372	0
bin	195657755.47705	0
bin	195657755.51039	0
bin	195657755.54372	0
bin	195657755.57705	0
bin	195657755.61039	0
bin	195657755.64372	0
bin	195657755.67705	0
bin	195657755.71039	0
scalar Throughput.destinationHost.ipv4.ip packetDropAddressResolutionFailed:count 0
attr interpolationmode none
attr source packetDropReasonIsAddressResolutionFailed(packetDrop)
attr title "packet drop: address resolution failed, count"
scalar Throughput.destinationHost.ipv4.ip packetDropAddressResolutionFailed:sum(packetBytes) 0
attr interpolationmode none
attr source packetDropReasonIsAddressResolutionFailed(packetDrop)
attr title "packet drop: address resolution failed, sum(packetBytes)"
scalar Throughput.destinationHost.ipv4.ip packetDropHopLimitReached:count 0
attr interpolationmode none
attr source packetDropReasonIsHopLimitReached(packetDrop)
attr title "packet drop: hop limit reached, count"
scalar Throughput.destinationHost.ipv4.ip packetDropHopLimitReached:sum(packetBytes) 0
attr interpolationmode none
attr source packetDropReasonIsHopLimitReached(packetDrop)
attr title "packet drop: hop limit reached, sum(packetBytes)"
scalar Throughput.destinationHost.ipv4.ip packetDropForwardingDisabled:count 0
attr interpolationmode none
attr source packetDropReasonIsForwardingDisabled(packetDrop)
attr title "packet drop: forwarding disabled, count"
scalar Throughput.destinationHost.ipv4.ip packetDropForwardingDisabled:sum(packetBytes) 0
attr interpolationmode none
attr source packetDropReasonIsForwardingDisabled(packetDrop)
attr title "packet drop: forwarding disabled, sum(packetBytes)"
scalar Throughput.destinationHost.ipv4.ip packetDropNoInterfaceFound:count 0
attr interpolationmode none
attr source packetDropReasonIsNoInterfaceFound(packetDrop)
attr title "packet drop: no interface found, count"
scalar Throughput.destinationHost.ipv4.ip packetDropNoInterfaceFound:sum(packetBytes) 0
attr interpolationmode none
attr source packetDropReasonIsNoInterfaceFound(packetDrop)
attr title "packet drop: no interface found, sum(packetBytes)"
scalar Throughput.destinationHost.ipv4.ip packetDropNoRouteFound:count 0
attr interpolationmode none
attr source packetDropReasonIsNoRouteFound(packetDrop)
attr title "packet drop: no route found, count"
scalar Throughput.destinationHost.ipv4.ip packetDropNoRouteFound:sum(packetBytes) 0
attr interpolationmode none
attr source packetDropReasonIsNoRouteFound(packetDrop)
attr title "packet drop: no route found, sum(packetBytes)"
scalar Throughput.destinationHost.ipv4.ip packetDropUndefined:count 0
attr interpolationmode none
attr source packetDropReasonIsUndefined(packetDrop)
attr title "packet drop: undefined, count"
scalar Throughput.destinationHost.ipv4.ip packetDropUndefined:sum(packetBytes) 0
attr interpolationmode none
attr source packetDropReasonIsUndefined(packetDrop)
attr title "packet drop: undefined, sum(packetBytes)"
scalar Throughput.destinationHost.udp droppedPkBadChecksum:count 0
attr interpolationmode none
attr title "packets dropped (checksum error), count"
scalar Throughput.destinationHost.udp droppedPkWrongPort:count 0
attr interpolationmode none
attr title "packets dropped (wrong port), count"
scalar Throughput.destinationHost.udp passedUpPk:count 291
attr interpolationmode none
attr title "packets passed up, count"
scalar Throughput.destinationHost.udp rcvdPk:count 291
attr interpolationmode none
attr source rcvdPk
attr title "packets received, count"
scalar Throughput.destinationHost.udp rcvdPk:sum(packetBytes) 662316
attr interpolationmode none
attr source rcvdPk
attr title "packets received, sum(packetBytes)"
scalar Throughput.destinationHost.udp sentPk:count 0
attr interpolationmode none
attr source sentPk
attr title "packets sent, count"
scalar Throughput.destinationHost.udp sentPk:sum(packetBytes) 0
attr interpolationmode none
attr source sentPk
attr title "packets sent, sum(packetBytes)"
scalar Throughput.destinationHost.app[0] rcvdPk:count 291
attr interpolationmode none
attr source rcvdPk
attr title "packets received, count"
scalar Throughput.destinationHost.app[0] rcvdPk:sum(packetBytes) 659988
attr interpolationmode none
attr source rcvdPk
attr title "packets received, sum(packetBytes)"
scalar Throughput.destinationHost.app[0] throughput:mean 5281920
attr source throughput(rcvdPk)
attr title "throughput, mean"
attr unit bps
statistic Throughput.destinationHost.app[0] endToEndDelay:histogram
field count 291
field mean 0
field stddev 0
field min 0
field max 0
field sum 0
field sqrsum 0
attr interpolationmode none
attr source messageAge(rcvdPk)
attr title "end-to-end delay, histogram"
attr unit s
bin	-inf	0
bin	-0.5	0
bin	-0.46666666666667	0
bin	-0.43333333333333	0
bin	-0.4	0
bin	-0.36666666666667	0
bin	-0.33333333333333	0
bin	-0.3	0
bin	-0.26666666666667	0
bin	-0.23333333333333	0
bin	-0.2	0
bin	-0.16666666666667	0
bin	-0.13333333333333	0
bin	-0.1	0
bin	-0.066666666666667	0
bin	-0.033333333333333	0
bin	0	291
bin	0.033333333333333	0
bin	0.066666666666667	0
bin	0.1	0
bin	0.13333333333333	0
bin	0.16666666666667	0
bin	0.2	0
bin	0.23333333333333	0
bin	0.26666666666667	0
bin	0.3	0
bin	0.33333333333333	0
bin	0.36666666666667	0
bin	0.4	0
bin	0.43333333333333	0
bin	0.46666666666667	0
bin	0.5	0
scalar Throughput.radioMedium.propagation "Arrival computation count" 1165
scalar Throughput.radioMedium "transmission count" 1165
scalar Throughput.radioMedium "signal send count" 1165
scalar Throughput.radioMedium "reception computation count" 1165
scalar Throughput.radioMedium "interference computation count" 9320
scalar Throughput.radioMedium "reception decision computation count" 2328
scalar Throughput.radioMedium "listening decision computation count" 2330
scalar Throughput.radioMedium "reception cache hit" 93.748993936792
attr unit %
scalar Throughput.radioMedium "interference cache hit" 74.98389521151
attr unit %
scalar Throughput.radioMedium "noise cache hit" 0
attr unit %
scalar Throughput.radioMedium "snir cache hit" 79.98969426314
attr unit %
scalar Throughput.radioMedium "reception decision cache hit" 0
attr unit %
scalar Throughput.radioMedium "reception result cache hit" 0
attr unit %

version 2
run General-3-20171027-11:40:41-11660
attr configname General
attr datetime 20171027-11:40:41
attr experiment General
attr inifile omnetpp.ini
attr iterationvars "$bitrate=9, $packetLength=2268"
attr iterationvarsf bitrate=9,packetLength=2268-
attr measurement "$bitrate=9, $packetLength=2268"
attr network Throughput
attr processid 11660
attr repetition 0
attr replication #0
attr resultdir results
attr runnumber 3
attr seedset 3
itervar bitrate 9
itervar packetLength 2268
param *.*Host.ipv4.arpType "\"GlobalARP\""
param *.*Host.wlan[*].mgmtType "\"Ieee80211MgmtAdhoc\""
param *.*Host.wlan[*].opMode "\"g(erp)\""
param *.*Host.wlan[*].bitrate 9Mbps
param *.*Host.wlan[*].radio.separateReceptionParts true
param *.*Host.wlan[*].radio.separateTransmissionParts true
param *.sourceHost.numApps 1
param *.sourceHost.app[0].typename "\"UDPBasicApp\""
param *.sourceHost.app[*].destAddresses "\"destinationHost\""
param *.sourceHost.app[*].destPort 5000
param *.sourceHost.app[*].messageLength 2268byte
param *.sourceHost.app[*].packetName "\"UDPData-\""
param *.sourceHost.app[*].startTime 0s
param *.sourceHost.app[*].sendInterval "2268 * 8 / 9 * 1us"
param *.destinationHost.numApps 1
param *.destinationHost.app[0].typename "\"UDPSink\""
param *.destinationHost.app[*].localPort 5000

scalar Throughput.sourceHost.lo[0].lo rcvdPkFromHL:count 0
attr interpolationmode none
attr source packetReceivedFromUpper
attr title "packets received from higher layer, count"
scalar Throughput.sourceHost.lo[0].lo rcvdPkFromHL:sum(packetBytes) 0
attr interpolationmode none
attr source packetReceivedFromUpper
attr title "packets received from higher layer, sum(packetBytes)"
scalar Throughput.sourceHost.lo[0].lo passedUpPk:count 0
attr interpolationmode none
attr source packetSentToUpper
attr title "packets passed to higher layer, count"
scalar Throughput.sourceHost.lo[0].lo passedUpPk:sum(packetBytes) 0
attr interpolationmode none
attr source packetSentToUpper
attr title "packets passed to higher layer, sum(packetBytes)"
scalar Throughput.sourceHost.wlan[0].mac packetDropIncorrectlyReceived:count 0
attr interpolationmode none
attr source packetDropReasonIsIncorrectlyReceived(packetDrop)
attr title "packet drop: incorrectly received, count"
scalar Throughput.sourceHost.wlan[0].mac packetDropIncorrectlyReceived:sum(packetBytes) 0
attr interpolationmode none
attr source packetDropReasonIsIncorrectlyReceived(packetDrop)
attr title "packet drop: incorrectly received, sum(packetBytes)"
scalar Throughput.sourceHost.wlan[0].mac packetDropNotAddressedToUs:count 0
attr interpolationmode none
attr source packetDropReasonIsNotAddressedToUs(packetDrop)
attr title "packet drop: not addressed to us, count"
scalar Throughput.sourceHost.wlan[0].mac packetDropNotAddressedToUs:sum(packetBytes) 0
attr interpolationmode none
attr source packetDropReasonIsNotAddressedToUs(packetDrop)
attr title "packet drop: not addressed to us, sum(packetBytes)"
scalar Throughput.sourceHost.wlan[0].mac packetDropQueueOverflow:count 62
attr interpolationmode none
attr source packetDropReasonIsQueueOverflow(packetDrop)
attr title "packet drop: queue overflow, count"
scalar Throughput.sourceHost.wlan[0].mac packetDropQueueOverflow:sum(packetBytes) 144584
attr interpolationmode none
attr source packetDropReasonIsQueueOverflow(packetDrop)
attr title "packet drop: queue overflow, sum(packetBytes)"
scalar Throughput.sourceHost.wlan[0].mac packetDropRetryLimitReached:count 0
attr interpolationmode none
attr source packetDropReasonIsRetryLimitReached(packetDrop)
attr title "packet drop: retry limit reached, count"
scalar Throughput.sourceHost.wlan[0].mac packetDropRetryLimitReached:sum(packetBytes) 0
attr interpolationmode none
attr source packetDropReasonIsRetryLimitReached(packetDrop)
attr title "packet drop: retry limit reached, sum(packetBytes)"
scalar Throughput.sourceHost.wlan[0].mac linkBreak:count 0
attr interpolationmode none
attr source linkBreak
attr title "link break, count"
scalar Throughput.sourceHost.wlan[0].mac rcvdPkFromLL:count 840
attr interpolationmode none
attr source packetReceivedFromLower
attr title "packets received from lower layer, count"
scalar Throughput.sourceHost.wlan[0].mac rcvdPkFromLL:sum(packetBytes) 11760
attr interpolationmode none
attr source packetReceivedFromLower
attr title "packets received from lower layer, sum(packetBytes)"
scalar Throughput.sourceHost.wlan[0].mac sentDownPk:count 841
attr interpolationmode none
attr source packetSentToLower
attr title "packets sent to lower layer, count"
scalar Throughput.sourceHost.wlan[0].mac sentDownPk:sum(packetBytes) 992700
attr interpolationmode none
attr source packetSentToLower
attr title "packets sent to lower layer, sum(packetBytes)"
scalar Throughput.sourceHost.wlan[0].mac rcvdPkFromHL:count 497
attr interpolationmode none
attr source packetReceivedFromUpper
attr title "packets received from higher layer, count"
scalar Throughput.sourceHost.wlan[0].mac rcvdPkFromHL:sum(packetBytes) 1145088
attr interpolationmode none
attr source packetReceivedFromUpper
attr title "packets received from higher layer, sum(packetBytes)"
scalar Throughput.sourceHost.wlan[0].mac passedUpPk:count 0
attr interpolationmode none
attr source packetSentToUpper
attr title "packets passed to higher layer, count"
scalar Throughput.sourceHost.wlan[0].mac passedUpPk:sum(packetBytes) 0
attr interpolationmode none
attr source packetSentToUpper
attr title "packets passed to higher layer, sum(packetBytes)"
statistic Throughput.sourceHost.wlan[0].radio radioChannel:histogram
field count 1
field mean 0
field stddev -nan
field min 0
field max 0
field sum 0
field sqrsum 0
attr interpolationmode sample-hold
attr source radioChannelChanged
attr title "Radio channel, histogram"
bin	-inf	0
bin	-0.5	0
bin	-0.46666666666667	0
bin	-0.43333333333333	0
bin	-0.4	0
bin	-0.36666666666667	0
bin	-0.33333333333333	0
bin	-0.3	0
bin	-0.26666666666667	0
bin	-0.23333333333333	0
bin	-0.2	0
bin	-0.16666666666667	0
bin	-0.13333333333333	0
bin	-0.1	0
bin	-0.066666666666667	0
bin	-0.033333333333333	0
bin	0	1
bin	0.033333333333333	0
bin	0.066666666666667	0
bin	0.1	0
bin	0.13333333333333	0
bin	0.16666666666667	0
bin	0.2	0
bin	0.23333333333333	0
bin	0.26666666666667	0
bin	0.3	0
bin	0.33333333333333	0
bin	0.36666666666667	0
bin	0.4	0
bin	0.43333333333333	0
bin	0.46666666666667	0
bin	0.5	0
scalar Throughput.sourceHost.wlan[0].radio transmissionState:count 3362
attr interpolationmode sample-hold
attr source transmissionStateChanged
attr title "Radio transmission state, count"
scalar Throughput.sourceHost.wlan[0].radio receptionState:count 3362
attr interpolationmode sample-hold
attr source receptionStateChanged
attr title "Radio reception state, count"
scalar Throughput.sourceHost.wlan[0].radio radioMode:count 1683
attr interpolationmode sample-hold
attr source radioModeChanged
attr title "Radio mode, count"
statistic Throughput.sourceHost.wlan[0].radio symbolErrorRate:histogram
field count 0
field mean -nan
field stddev -nan
field min -nan
field max -nan
field sum 0
field sqrsum 0
attr source symbolErrorRate
attr title "Symbol error rate, histogram"
bin	-inf	0
bin	-0.5	0
bin	-0.46666666666667	0
bin	-0.43333333333333	0
bin	-0.4	0
bin	-0.36666666666667	0
bin	-0.33333333333333	0
bin	-0.3	0
bin	-0.26666666666667	0
bin	-0.23333333333333	0
bin	-0.2	0
bin	-0.16666666666667	0
bin	-0.13333333333333	0
bin	-0.1	0
bin	-0.066666666666667	0
bin	-0.033333333333333	0
bin	0	0
bin	0.033333333333333	0
bin	0.066666666666667	0
bin	0.1	0
bin	0.13333333333333	0
bin	0.16666666666667	0
bin	0.2	0
bin	0.23333333333333	0
bin	0.26666666666667	0
bin	0.3	0
bin	0.33333333333333	0
bin	0.36666666666667	0
bin	0.4	0
bin	0.43333333333333	0
bin	0.46666666666667	0
bin	0.5	0
statistic Throughput.sourceHost.wlan[0].radio bitErrorRate:histogram
field count 0
field mean -nan
field stddev -nan
field min -nan
field max -nan
field sum 0
field sqrsum 0
attr source bitErrorRate
attr title "Bit error rate, histogram"
bin	-inf	0
bin	-0.5	0
bin	-0.46666666666667	0
bin	-0.43333333333333	0
bin	-0.4	0
bin	-0.36666666666667	0
bin	-0.33333333333333	0
bin	-0.3	0
bin	-0.26666666666667	0
bin	-0.23333333333333	0
bin	-0.2	0
bin	-0.16666666666667	0
bin	-0.13333333333333	0
bin	-0.1	0
bin	-0.066666666666667	0
bin	-0.033333333333333	0
bin	0	0
bin	0.033333333333333	0
bin	0.066666666666667	0
bin	0.1	0
bin	0.13333333333333	0
bin	0.16666666666667	0
bin	0.2	0
bin	0.23333333333333	0
bin	0.26666666666667	0
bin	0.3	0
bin	0.33333333333333	0
bin	0.36666666666667	0
bin	0.4	0
bin	0.43333333333333	0
bin	0.46666666666667	0
bin	0.5	0
statistic Throughput.sourceHost.wlan[0].radio packetErrorRate:histogram
field count 840
field mean 0
field stddev 0
field min 0
field max 0
field sum 0
field sqrsum 0
attr source packetErrorRate
attr title "Packet error rate, histogram"
bin	-inf	0
bin	-0.5	0
bin	-0.46666666666667	0
bin	-0.43333333333333	0
bin	-0.4	0
bin	-0.36666666666667	0
bin	-0.33333333333333	0
bin	-0.3	0
bin	-0.26666666666667	0
bin	-0.23333333333333	0
bin	-0.2	0
bin	-0.16666666666667	0
bin	-0.13333333333333	0
bin	-0.1	0
bin	-0.066666666666667	0
bin	-0.033333333333333	0
bin	0	840
bin	0.033333333333333	0
bin	0.066666666666667	0
bin	0.1	0
bin	0.13333333333333	0
bin	0.16666666666667	0
bin	0.2	0
bin	0.23333333333333	0
bin	0.26666666666667	0
bin	0.3	0
bin	0.33333333333333	0
bin	0.36666666666667	0
bin	0.4	0
bin	0.43333333333333	0
bin	0.46666666666667	0
bin	0.5	0
statistic Throughput.sourceHost.wlan[0].radio minSNIR:histogram
field count 840
field mean 195657755.21039
field stddev 0
field min 195657755.21039
field max 195657755.21039
field sum 164352514376.73
field sqrsum 3.2156844026133e+19
attr source minSNIR
attr title "Min SNIR, histogram"
bin	-inf	0
bin	195657754.71039	0
bin	195657754.74372	0
bin	195657754.77705	0
bin	195657754.81039	0
bin	195657754.84372	0
bin	195657754.87705	0
bin	195657754.91039	0
bin	195657754.94372	0
bin	195657754.97705	0
bin	195657755.01039	0
bin	195657755.04372	0
bin	195657755.07705	0
bin	195657755.11039	0
bin	195657755.14372	0
bin	195657755.17705	0
bin	195657755.21039	840
bin	195657755.24372	0
bin	195657755.27705	0
bin	195657755.31039	0
bin	195657755.34372	0
bin	195657755.37705	0
bin	195657755.41039	0
bin	195657755.44372	0
bin	195657755.47705	0
bin	195657755.51039	0
bin	195657755.54372	0
bin	195657755.57705	0
bin	195657755.61039	0
bin	195657755.64372	0
bin	195657755.67705	0
bin	195657755.71039	0
scalar Throughput.sourceHost.ipv4.ip packetDropAddressResolutionFailed:count 0
attr interpolationmode none
attr source packetDropReasonIsAddressResolutionFailed(packetDrop)
attr title "packet drop: address resolution failed, count"
scalar Throughput.sourceHost.ipv4.ip packetDropAddressResolutionFailed:sum(packetBytes) 0
attr interpolationmode none
attr source packetDropReasonIsAddressResolutionFailed(packetDrop)
attr title "packet drop: address resolution failed, sum(packetBytes)"
scalar Throughput.sourceHost.ipv4.ip packetDropHopLimitReached:count 0
attr interpolationmode none
attr source packetDropReasonIsHopLimitReached(packetDrop)
attr title "packet drop: hop limit reached, count"
scalar Throughput.sourceHost.ipv4.ip packetDropHopLimitReached:sum(packetBytes) 0
attr interpolationmode none
attr source packetDropReasonIsHopLimitReached(packetDrop)
attr title "packet drop: hop limit reached, sum(packetBytes)"
scalar Throughput.sourceHost.ipv4.ip packetDropForwardingDisabled:count 0
attr interpolationmode none
attr source packetDropReasonIsForwardingDisabled(packetDrop)
attr title "packet drop: forwarding disabled, count"
scalar Throughput.sourceHost.ipv4.ip packetDropForwardingDisabled:sum(packetBytes) 0
attr interpolationmode none
attr source packetDropReasonIsForwardingDisabled(packetDrop)
attr title "packet drop: forwarding disabled, sum(packetBytes)"
scalar Throughput.sourceHost.ipv4.ip packetDropNoInterfaceFound:count 0
attr interpolationmode none
attr source packetDropReasonIsNoInterfaceFound(packetDrop)
attr title "packet drop: no interface found, count"
scalar Throughput.sourceHost.ipv4.ip packetDropNoInterfaceFound:sum(packetBytes) 0
attr interpolationmode none
attr source packetDropReasonIsNoInterfaceFound(packetDrop)
attr title "packet drop: no interface found, sum(packetBytes)"
scalar Throughput.sourceHost.ipv4.ip packetDropNoRouteFound:count 0
attr interpolationmode none
attr source packetDropReasonIsNoRouteFound(packetDrop)
attr title "packet drop: no route found, count"
scalar Throughput.sourceHost.ipv4.ip packetDropNoRouteFound:sum(packetBytes) 0
attr interpolationmode none
attr source packetDropReasonIsNoRouteFound(packetDrop)
attr title "packet drop: no route found, sum(packetBytes)"
scalar Throughput.sourceHost.ipv4.ip packetDropUndefined:count 0
attr interpolationmode none
attr source packetDropReasonIsUndefined(packetDrop)
attr title "packet drop: undefined, count"
scalar Throughput.sourceHost.ipv4.ip packetDropUndefined:sum(packetBytes) 0
attr interpolationmode none
attr source packetDropReasonIsUndefined(packetDrop)
attr title "packet drop: undefined, sum(packetBytes)"
scalar Throughput.sourceHost.udp droppedPkBadChecksum:count 0
attr interpolationmode none
attr title "packets dropped (checksum error), count"
scalar Throughput.sourceHost.udp droppedPkWrongPort:count 0
attr interpolationmode none
attr title "packets dropped (wrong port), count"
scalar Throughput.sourceHost.udp passedUpPk:count 0
attr interpolationmode none
attr title "packets passed up, count"
scalar Throughput.sourceHost.udp rcvdPk:count 0
attr interpolationmode none
attr source rcvdPk
attr title "packets received, count"
scalar Throughput.sourceHost.udp rcvdPk:sum(packetBytes) 0
attr interpolationmode none
attr source rcvdPk
attr title "packets received, sum(packetBytes)"
scalar Throughput.sourceHost.udp sentPk:count 497
attr interpolationmode none
attr source sentPk
attr title "packets sent, count"
scalar Throughput.sourceHost.udp sentPk:sum(packetBytes) 1131172
attr interpolationmode none
attr source sentPk
attr title "packets sent, sum(packetBytes)"
scalar Throughput.sourceHost.app[0] "packets sent" 497
scalar Throughput.sourceHost.app[0] "packets received" 0
scalar Throughput.sourceHost.app[0] rcvdPk:count 0
attr interpolationmode none
attr source rcvdPk
attr title "packets received, count"
scalar Throughput.sourceHost.app[0] rcvdPk:sum(packetBytes) 0
attr interpolationmode none
attr source rcvdPk
attr title "packets received, sum(packetBytes)"
scalar Throughput.sourceHost.app[0] throughput:mean -nan
attr source throughput(rcvdPk)
attr title "throughput, mean"
attr unit bps
statistic Throughput.sourceHost.app[0] rcvdPkLifetime:stats
field count 0
field mean -nan
field stddev -nan
field min -nan
field max -nan
field sum 0
field sqrsum 0
attr interpolationmode none
attr source messageAge(rcvdPk)
attr title "received packet lifetime, stats"
attr unit s
scalar Throughput.sourceHost.app[0] sentPk:count 497
attr interpolationmode none
attr source sentPk
attr title "packets sent, count"
scalar Throughput.sourceHost.app[0] sentPk:sum(packetBytes) 1127196
attr interpolationmode none
attr source sentPk
attr title "packets sent, sum(packetBytes)"
scalar Throughput.destinationHost.lo[0].lo rcvdPkFromHL:count 0
attr interpolationmode none
attr source packetReceivedFromUpper
attr title "packets received from higher layer, count"
scalar Throughput.destinationHost.lo[0].lo rcvdPkFromHL:sum(packetBytes) 0
attr interpolationmode none
attr source packetReceivedFromUpper
attr title "packets received from higher layer, sum(packetBytes)"
scalar Throughput.destinationHost.lo[0].lo passedUpPk:count 0
attr interpolationmode none
attr source packetSentToUpper
attr title "packets passed to higher layer, count"
scalar Throughput.destinationHost.lo[0].lo passedUpPk:sum(packetBytes) 0
attr interpolationmode none
attr source packetSentToUpper
attr title "packets passed to higher layer, sum(packetBytes)"
scalar Throughput.destinationHost.wlan[0].mac packetDropIncorrectlyReceived:count 0
attr interpolationmode none
attr source packetDropReasonIsIncorrectlyReceived(packetDrop)
attr title "packet drop: incorrectly received, count"
scalar Throughput.destinationHost.wlan[0].mac packetDropIncorrectlyReceived:sum(packetBytes) 0
attr interpolationmode none
attr source packetDropReasonIsIncorrectlyReceived(packetDrop)
attr title "packet drop: incorrectly received, sum(packetBytes)"
scalar Throughput.destinationHost.wlan[0].mac packetDropNotAddressedToUs:count 0
attr interpolationmode none
attr source packetDropReasonIsNotAddressedToUs(packetDrop)
attr title "packet drop: not addressed to us, count"
scalar Throughput.destinationHost.wlan[0].mac packetDropNotAddressedToUs:sum(packetBytes) 0
attr interpolationmode none
attr source packetDropReasonIsNotAddressedToUs(packetDrop)
attr title "packet drop: not addressed to us, sum(packetBytes)"
scalar Throughput.destinationHost.wlan[0].mac packetDropQueueOverflow:count 0
attr interpolationmode none
attr source packetDropReasonIsQueueOverflow(packetDrop)
attr title "packet drop: queue overflow, count"
scalar Throughput.destinationHost.wlan[0].mac packetDropQueueOverflow:sum(packetBytes) 0
attr interpolationmode none
attr source packetDropReasonIsQueueOverflow(packetDrop)
attr title "packet drop: queue overflow, sum(packetBytes)"
scalar Throughput.destinationHost.wlan[0].mac packetDropRetryLimitReached:count 0
attr interpolationmode none
attr source packetDropReasonIsRetryLimitReached(packetDrop)
attr title "packet drop: retry limit reached, count"
scalar Throughput.destinationHost.wlan[0].mac packetDropRetryLimitReached:sum(packetBytes) 0
attr interpolationmode none
attr source packetDropReasonIsRetryLimitReached(packetDrop)
attr title "packet drop: retry limit reached, sum(packetBytes)"
scalar Throughput.destinationHost.wlan[0].mac linkBreak:count 0
attr interpolationmode none
attr source linkBreak
attr title "link break, count"
scalar Throughput.destinationHost.wlan[0].mac rcvdPkFromLL:count 840
attr interpolationmode none
attr source packetReceivedFromLower
attr title "packets received from lower layer, count"
scalar Throughput.destinationHost.wlan[0].mac rcvdPkFromLL:sum(packetBytes) 991200
attr interpolationmode none
attr source packetReceivedFromLower
attr title "packets received from lower layer, sum(packetBytes)"
scalar Throughput.destinationHost.wlan[0].mac sentDownPk:count 840
attr interpolationmode none
attr source packetSentToLower
attr title "packets sent to lower layer, count"
scalar Throughput.destinationHost.wlan[0].mac sentDownPk:sum(packetBytes) 11760
attr interpolationmode none
attr source packetSentToLower
attr title "packets sent to lower layer, sum(packetBytes)"
scalar Throughput.destinationHost.wlan[0].mac rcvdPkFromHL:count 0
attr interpolationmode none
attr source packetReceivedFromUpper
attr title "packets received from higher layer, count"
scalar Throughput.destinationHost.wlan[0].mac rcvdPkFromHL:sum(packetBytes) 0
attr interpolationmode none
attr source packetReceivedFromUpper
attr title "packets received from higher layer, sum(packetBytes)"
scalar Throughput.destinationHost.wlan[0].mac passedUpPk:count 420
attr interpolationmode none
attr source packetSentToUpper
attr title "packets passed to higher layer, count"
scalar Throughput.destinationHost.wlan[0].mac passedUpPk:sum(packetBytes) 967680
attr interpolationmode none
attr source packetSentToUpper
attr title "packets passed to higher layer, sum(packetBytes)"
statistic Throughput.destinationHost.wlan[0].radio radioChannel:histogram
field count 1
field mean 0
field stddev -nan
field min 0
field max 0
field sum 0
field sqrsum 0
attr interpolationmode sample-hold
attr source radioChannelChanged
attr title "Radio channel, histogram"
bin	-inf	0
bin	-0.5	0
bin	-0.46666666666667	0
bin	-0.43333333333333	0
bin	-0.4	0
bin	-0.36666666666667	0
bin	-0.33333333333333	0
bin	-0.3	0
bin	-0.26666666666667	0
bin	-0.23333333333333	0
bin	-0.2	0
bin	-0.16666666666667	0
bin	-0.13333333333333	0
bin	-0.1	0
bin	-0.066666666666667	0
bin	-0.033333333333333	0
bin	0	1
bin	0.033333333333333	0
bin	0.066666666666667	0
bin	0.1	0
bin	0.13333333333333	0
bin	0.16666666666667	0
bin	0.2	0
bin	0.23333333333333	0
bin	0.26666666666667	0
bin	0.3	0
bin	0.33333333333333	0
bin	0.36666666666667	0
bin	0.4	0
bin	0.43333333333333	0
bin	0.46666666666667	0
bin	0.5	0
scalar Throughput.destinationHost.wlan[0].radio transmissionState:count 3360
attr interpolationmode sample-hold
attr source transmissionStateChanged
attr title "Radio transmission state, count"
scalar Throughput.destinationHost.wlan[0].radio receptionState:count 3362
attr interpolationmode sample-hold
attr source receptionStateChanged
attr title "Radio reception state, count"
scalar Throughput.destinationHost.wlan[0].radio radioMode:count 1682
attr interpolationmode sample-hold
attr source radioModeChanged
attr title "Radio mode, count"
statistic Throughput.destinationHost.wlan[0].radio symbolErrorRate:histogram
field count 0
field mean -nan
field stddev -nan
field min -nan
field max -nan
field sum 0
field sqrsum 0
attr source symbolErrorRate
attr title "Symbol error rate, histogram"
bin	-inf	0
bin	-0.5	0
bin	-0.46666666666667	0
bin	-0.43333333333333	0
bin	-0.4	0
bin	-0.36666666666667	0
bin	-0.33333333333333	0
bin	-0.3	0
bin	-0.26666666666667	0
bin	-0.23333333333333	0
bin	-0.2	0
bin	-0.16666666666667	0
bin	-0.13333333333333	0
bin	-0.1	0
bin	-0.066666666666667	0
bin	-0.033333333333333	0
bin	0	0
bin	0.033333333333333	0
bin	0.066666666666667	0
bin	0.1	0
bin	0.13333333333333	0
bin	0.16666666666667	0
bin	0.2	0
bin	0.23333333333333	0
bin	0.26666666666667	0
bin	0.3	0
bin	0.33333333333333	0
bin	0.36666666666667	0
bin	0.4	0
bin	0.43333333333333	0
bin	0.46666666666667	0
bin	0.5	0
statistic Throughput.destinationHost.wlan[0].radio bitErrorRate:histogram
field count 0
field mean -nan
field stddev -nan
field min -nan
field max -nan
field sum 0
field sqrsum 0
attr source bitErrorRate
attr title "Bit error rate, histogram"
bin	-inf	0
bin	-0.5	0
bin	-0.46666666666667	0
bin	-0.43333333333333	0
bin	-0.4	0
bin	-0.36666666666667	0
bin	-0.33333333333333	0
bin	-0.3	0
bin	-0.26666666666667	0
bin	-0.23333333333333	0
bin	-0.2	0
bin	-0.16666666666667	0
bin	-0.13333333333333	0
bin	-0.1	0
bin	-0.066666666666667	0
bin	-0.033333333333333	0
bin	0	0
bin	0.033333333333333	0
bin	0.066666666666667	0
bin	0.1	0
bin	0.13333333333333	0
bin	0.16666666666667	0
bin	0.2	0
bin	0.23333333333333	0
bin	0.26666666666667	0
bin	0.3	0
bin	0.33333333333333	0
bin	0.36666666666667	0
bin	0.4	0
bin	0.43333333333333	0
bin	0.46666666666667	0
bin	0.5	0
statistic Throughput.destinationHost.wlan[0].radio packetErrorRate:histogram
field count 840
field mean 0
field stddev 0
field min 0
field max 0
field sum 0
field sqrsum 0
attr source packetErrorRate
attr title "Packet error rate, histogram"
bin	-inf	0
bin	-0.5	0
bin	-0.46666666666667	0
bin	-0.43333333333333	0
bin	-0.4	0
bin	-0.36666666666667	0
bin	-0.33333333333333	0
bin	-0.3	0
bin	-0.26666666666667	0
bin	-0.23333333333333	0
bin	-0.2	0
bin	-0.16666666666667	0
bin	-0.13333333333333	0
bin	-0.1	0
bin	-0.066666666666667	0
bin	-0.033333333333333	0
bin	0	840
bin	0.033333333333333	0
bin	0.066666666666667	0
bin	0.1	0
bin	0.13333333333333	0
bin	0.16666666666667	0
bin	0.2	0
bin	0.23333333333333	0
bin	0.26666666666667	0
bin	0.3	0
bin	0.33333333333333	0
bin	0.36666666666667	0
bin	0.4	0
bin	0.43333333333333	0
bin	0.46666666666667	0
bin	0.5	0
statistic Throughput.destinationHost.wlan[0].radio minSNIR:histogram
field count 840
field mean 195657755.21039
field stddev 0
field min 195657755.21039
field max 195657755.21039
field sum 164352514376.73
field sqrsum 3.2156844026133e+19
attr source minSNIR
attr title "Min SNIR, histogram"
bin	-inf	0
bin	195657754.71039	0
bin	195657754.74372	0
bin	195657754.77705	0
bin	195657754.81039	0
bin	195657754.84372	0
bin	195657754.87705	0
bin	195657754.91039	0
bin	195657754.94372	0
bin	195657754.97705	0
bin	195657755.01039	0
bin	195657755.04372	0
bin	195657755.07705	0
bin	195657755.11039	0
bin	195657755.14372	0
bin	195657755.17705	0
bin	195657755.21039	840
bin	195657755.24372	0
bin	195657755.27705	0
bin	195657755.31039	0
bin	195657755.34372	0
bin	195657755.37705	0
bin	195657755.41039	0
bin	195657755.44372	0
bin	195657755.47705	0
bin	195657755.51039	0
bin	195657755.54372	0
bin	195657755.57705	0
bin	195657755.61039	0
bin	195657755.64372	0
bin	195657755.67705	0
bin	195657755.71039	0
scalar Throughput.destinationHost.ipv4.ip packetDropAddressResolutionFailed:count 0
attr interpolationmode none
attr source packetDropReasonIsAddressResolutionFailed(packetDrop)
attr title "packet drop: address resolution failed, count"
scalar Throughput.destinationHost.ipv4.ip packetDropAddressResolutionFailed:sum(packetBytes) 0
attr interpolationmode none
attr source packetDropReasonIsAddressResolutionFailed(packetDrop)
attr title "packet drop: address resolution failed, sum(packetBytes)"
scalar Throughput.destinationHost.ipv4.ip packetDropHopLimitReached:count 0
attr interpolationmode none
attr source packetDropReasonIsHopLimitReached(packetDrop)
attr title "packet drop: hop limit reached, count"
scalar Throughput.destinationHost.ipv4.ip packetDropHopLimitReached:sum(packetBytes) 0
attr interpolationmode none
attr source packetDropReasonIsHopLimitReached(packetDrop)
attr title "packet drop: hop limit reached, sum(packetBytes)"
scalar Throughput.destinationHost.ipv4.ip packetDropForwardingDisabled:count 0
attr interpolationmode none
attr source packetDropReasonIsForwardingDisabled(packetDrop)
attr title "packet drop: forwarding disabled, count"
scalar Throughput.destinationHost.ipv4.ip packetDropForwardingDisabled:sum(packetBytes) 0
attr interpolationmode none
attr source packetDropReasonIsForwardingDisabled(packetDrop)
attr title "packet drop: forwarding disabled, sum(packetBytes)"
scalar Throughput.destinationHost.ipv4.ip packetDropNoInterfaceFound:count 0
attr interpolationmode none
attr source packetDropReasonIsNoInterfaceFound(packetDrop)
attr title "packet drop: no interface found, count"
scalar Throughput.destinationHost.ipv4.ip packetDropNoInterfaceFound:sum(packetBytes) 0
attr interpolationmode none
attr source packetDropReasonIsNoInterfaceFound(packetDrop)
attr title "packet drop: no interface found, sum(packetBytes)"
scalar Throughput.destinationHost.ipv4.ip packetDropNoRouteFound:count 0
attr interpolationmode none
attr source packetDropReasonIsNoRouteFound(packetDrop)
attr title "packet drop: no route found, count"
scalar Throughput.destinationHost.ipv4.ip packetDropNoRouteFound:sum(packetBytes) 0
attr interpolationmode none
attr source packetDropReasonIsNoRouteFound(packetDrop)
attr title "packet drop: no route found, sum(packetBytes)"
scalar Throughput.destinationHost.ipv4.ip packetDropUndefined:count 0
attr interpolationmode none
attr source packetDropReasonIsUndefined(packetDrop)
attr title "packet drop: undefined, count"
scalar Throughput.destinationHost.ipv4.ip packetDropUndefined:sum(packetBytes) 0
attr interpolationmode none
attr source packetDropReasonIsUndefined(packetDrop)
attr title "packet drop: undefined, sum(packetBytes)"
scalar Throughput.destinationHost.udp droppedPkBadChecksum:count 0
attr interpolationmode none
attr title "packets dropped (checksum error), count"
scalar Throughput.destinationHost.udp droppedPkWrongPort:count 0
attr interpolationmode none
attr title "packets dropped (wrong port), count"
scalar Throughput.destinationHost.udp passedUpPk:count 420
attr interpolationmode none
attr title "packets passed up, count"
scalar Throughput.destinationHost.udp rcvdPk:count 420
attr interpolationmode none
attr source rcvdPk
attr title "packets received, count"
scalar Throughput.destinationHost.udp rcvdPk:sum(packetBytes) 955920
attr interpolationmode none
attr source rcvdPk
attr title "packets received, sum(packetBytes)"
scalar Throughput.destinationHost.udp sentPk:count 0
attr interpolationmode none
attr source sentPk
attr title "packets sent, count"
scalar Throughput.destinationHost.udp sentPk:sum(packetBytes) 0
attr interpolationmode none
attr source sentPk
attr title "packets sent, sum(packetBytes)"
scalar Throughput.destinationHost.app[0] rcvdPk:count 420
attr interpolationmode none
attr source rcvdPk
attr title "packets received, count"
scalar Throughput.destinationHost.app[0] rcvdPk:sum(packetBytes) 952560
attr interpolationmode none
attr source rcvdPk
attr title "packets received, sum(packetBytes)"
scalar Throughput.destinationHost.app[0] throughput:mean 7620480
attr source throughput(rcvdPk)
attr title "throughput, mean"
attr unit bps
statistic Throughput.destinationHost.app[0] endToEndDelay:histogram
field count 420
field mean 0
field stddev 0
field min 0
field max 0
field sum 0
field sqrsum 0
attr interpolationmode none
attr source messageAge(rcvdPk)
attr title "end-to-end delay, histogram"
attr unit s
bin	-inf	0
bin	-0.5	0
bin	-0.46666666666667	0
bin	-0.43333333333333	0
bin	-0.4	0
bin	-0.36666666666667	0
bin	-0.33333333333333	0
bin	-0.3	0
bin	-0.26666666666667	0
bin	-0.23333333333333	0
bin	-0.2	0
bin	-0.16666666666667	0
bin	-0.13333333333333	0
bin	-0.1	0
bin	-0.066666666666667	0
bin	-0.033333333333333	0
bin	0	420
bin	0.033333333333333	0
bin	0.066666666666667	0
bin	0.1	0
bin	0.13333333333333	0
bin	0.16666666666667	0
bin	0.2	0
bin	0.23333333333333	0
bin	0.26666666666667	0
bin	0.3	0
bin	0.33333333333333	0
bin	0.36666666666667	0
bin	0.4	0
bin	0.43333333333333	0
bin	0.46666666666667	0
bin	0.5	0
scalar Throughput.radioMedium.propagation "Arrival computation count" 1681
scalar Throughput.radioMedium "transmission count" 1681
scalar Throughput.radioMedium "signal send count" 1681
scalar Throughput.radioMedium "reception computation count" 1681
scalar Throughput.radioMedium "interference computation count" 13448
scalar Throughput.radioMedium "reception decision computation count" 3360
scalar Throughput.radioMedium "listening decision computation count" 3362
scalar Throughput.radioMedium "reception cache hit" 93.749302792548
attr unit %
scalar Throughput.radioMedium "interference cache hit" 74.988840946288
attr unit %
scalar Throughput.radioMedium "noise cache hit" 0
attr unit %
scalar Throughput.radioMedium "snir cache hit" 79.992858843133
attr unit %
scalar Throughput.radioMedium "reception decision cache hit" 0
attr unit %
scalar Throughput.radioMedium "reception result cache hit" 0
attr unit %

version 2
run General-5-20171027-11:40:42-11654
attr configname General
attr datetime 20171027-11:40:42
attr experiment General
attr inifile omnetpp.ini
attr iterationvars "$bitrate=12, $packetLength=2268"
attr iterationvarsf bitrate=12,packetLength=2268-
attr measurement "$bitrate=12, $packetLength=2268"
attr network Throughput
attr processid 11654
attr repetition 0
attr replication #0
attr resultdir results
attr runnumber 5
attr seedset 5
itervar bitrate 12
itervar packetLength 2268
param *.*Host.ipv4.arpType "\"GlobalARP\""
param *.*Host.wlan[*].mgmtType "\"Ieee80211MgmtAdhoc\""
param *.*Host.wlan[*].opMode "\"g(erp)\""
param *.*Host.wlan[*].bitrate 12Mbps
param *.*Host.wlan[*].radio.separateReceptionParts true
param *.*Host.wlan[*].radio.separateTransmissionParts true
param *.sourceHost.numApps 1
param *.sourceHost.app[0].typename "\"UDPBasicApp\""
param *.sourceHost.app[*].destAddresses "\"destinationHost\""
param *.sourceHost.app[*].destPort 5000
param *.sourceHost.app[*].messageLength 2268byte
param *.sourceHost.app[*].packetName "\"UDPData-\""
param *.sourceHost.app[*].startTime 0s
param *.sourceHost.app[*].sendInterval "2268 * 8 / 12 * 1us"
param *.destinationHost.numApps 1
param *.destinationHost.app[0].typename "\"UDPSink\""
param *.destinationHost.app[*].localPort 5000

scalar Throughput.sourceHost.lo[0].lo rcvdPkFromHL:count 0
attr interpolationmode none
attr source packetReceivedFromUpper
attr title "packets received from higher layer, count"
scalar Throughput.sourceHost.lo[0].lo rcvdPkFromHL:sum(packetBytes) 0
attr interpolationmode none
attr source packetReceivedFromUpper
attr title "packets received from higher layer, sum(packetBytes)"
scalar Throughput.sourceHost.lo[0].lo passedUpPk:count 0
attr interpolationmode none
attr source packetSentToUpper
attr title "packets passed to higher layer, count"
scalar Throughput.sourceHost.lo[0].lo passedUpPk:sum(packetBytes) 0
attr interpolationmode none
attr source packetSentToUpper
attr title "packets passed to higher layer, sum(packetBytes)"
scalar Throughput.sourceHost.wlan[0].mac packetDropIncorrectlyReceived:count 0
attr interpolationmode none
attr source packetDropReasonIsIncorrectlyReceived(packetDrop)
attr title "packet drop: incorrectly received, count"
scalar Throughput.sourceHost.wlan[0].mac packetDropIncorrectlyReceived:sum(packetBytes) 0
attr interpolationmode none
attr source packetDropReasonIsIncorrectlyReceived(packetDrop)
attr title "packet drop: incorrectly received, sum(packetBytes)"
scalar Throughput.sourceHost.wlan[0].mac packetDropNotAddressedToUs:count 0
attr interpolationmode none
attr source packetDropReasonIsNotAddressedToUs(packetDrop)
attr title "packet drop: not addressed to us, count"
scalar Throughput.sourceHost.wlan[0].mac packetDropNotAddressedToUs:sum(packetBytes) 0
attr interpolationmode none
attr source packetDropReasonIsNotAddressedToUs(packetDrop)
attr title "packet drop: not addressed to us, sum(packetBytes)"
scalar Throughput.sourceHost.wlan[0].mac packetDropQueueOverflow:count 102
attr interpolationmode none
attr source packetDropReasonIsQueueOverflow(packetDrop)
attr title "packet drop: queue overflow, count"
scalar Throughput.sourceHost.wlan[0].mac packetDropQueueOverflow:sum(packetBytes) 237864
attr interpolationmode none
attr source packetDropReasonIsQueueOverflow(packetDrop)
attr title "packet drop: queue overflow, sum(packetBytes)"
scalar Throughput.sourceHost.wlan[0].mac packetDropRetryLimitReached:count 0
attr interpolationmode none
attr source packetDropReasonIsRetryLimitReached(packetDrop)
attr title "packet drop: retry limit reached, count"
scalar Throughput.sourceHost.wlan[0].mac packetDropRetryLimitReached:sum(packetBytes) 0
attr interpolationmode none
attr source packetDropReasonIsRetryLimitReached(packetDrop)
attr title "packet drop: retry limit reached, sum(packetBytes)"
scalar Throughput.sourceHost.wlan[0].mac linkBreak:count 0
attr interpolationmode none
attr source linkBreak
attr title "link break, count"
scalar Throughput.sourceHost.wlan[0].mac rcvdPkFromLL:count 1090
attr interpolationmode none
attr source packetReceivedFromLower
attr title "packets received from lower layer, count"
scalar Throughput.sourceHost.wlan[0].mac rcvdPkFromLL:sum(packetBytes) 15260
attr interpolationmode none
attr source packetReceivedFromLower
attr title "packets received from lower layer, sum(packetBytes)"
scalar Throughput.sourceHost.wlan[0].mac sentDownPk:count 1091
attr interpolationmode none
attr source packetSentToLower
attr title "packets sent to lower layer, count"
scalar Throughput.sourceHost.wlan[0].mac sentDownPk:sum(packetBytes) 1287700
attr interpolationmode none
attr source packetSentToLower
attr title "packets sent to lower layer, sum(packetBytes)"
scalar Throughput.sourceHost.wlan[0].mac rcvdPkFromHL:count 662
attr interpolationmode none
attr source packetReceivedFromUpper
attr title "packets received from higher layer, count"
scalar Throughput.sourceHost.wlan[0].mac rcvdPkFromHL:sum(packetBytes) 1525248
attr interpolationmode none
attr source packetReceivedFromUpper
attr title "packets received from higher layer, sum(packetBytes)"
scalar Throughput.sourceHost.wlan[0].mac passedUpPk:count 0
attr interpolationmode none
attr source packetSentToUpper
attr title "packets passed to higher layer, count"
scalar Throughput.sourceHost.wlan[0].mac passedUpPk:sum(packetBytes) 0
attr interpolationmode none
attr source packetSentToUpper
attr title "packets passed to higher layer, sum(packetBytes)"
statistic Throughput.sourceHost.wlan[0].radio radioChannel:histogram
field count 1
field mean 0
field stddev -nan
field min 0
field max 0
field sum 0
field sqrsum 0
attr interpolationmode sample-hold
attr source radioChannelChanged
attr title "Radio channel, histogram"
bin	-inf	0
bin	-0.5	0
bin	-0.46666666666667	0
bin	-0.43333333333333	0
bin	-0.4	0
bin	-0.36666666666667	0
bin	-0.33333333333333	0
bin	-0.3	0
bin	-0.26666666666667	0
bin	-0.23333333333333	0
bin	-0.2	0
bin	-0.16666666666667	0
bin	-0.13333333333333	0
bin	-0.1	0
bin	-0.066666666666667	0
bin	-0.033333333333333	0
bin	0	1
bin	0.033333333333333	0
bin	0.066666666666667	0
bin	0.1	0
bin	0.13333333333333	0
bin	0.16666666666667	0
bin	0.2	0
bin	0.23333333333333	0
bin	0.26666666666667	0
bin	0.3	0
bin	0.33333333333333	0
bin	0.36666666666667	0
bin	0.4	0
bin	0.43333333333333	0
bin	0.46666666666667	0
bin	0.5	0
scalar Throughput.sourceHost.wlan[0].radio transmissionState:count 4362
attr interpolationmode sample-hold
attr source transmissionStateChanged
attr title "Radio transmission state, count"
scalar Throughput.sourceHost.wlan[0].radio receptionState:count 4362
attr interpolationmode sample-hold
attr source receptionStateChanged
attr title "Radio reception state, count"
scalar Throughput.sourceHost.wlan[0].radio radioMode:count 2183
attr interpolationmode sample-hold
attr source radioModeChanged
attr title "Radio mode, count"
statistic Throughput.sourceHost.wlan[0].radio symbolErrorRate:histogram
field count 0
field mean -nan
field stddev -nan
field min -nan
field max -nan
field sum 0
field sqrsum 0
attr source symbolErrorRate
attr title "Symbol error rate, histogram"
bin	-inf	0
bin	-0.5	0
bin	-0.46666666666667	0
bin	-0.43333333333333	0
bin	-0.4	0
bin	-0.36666666666667	0
bin	-0.33333333333333	0
bin	-0.3	0
bin	-0.26666666666667	0
bin	-0.23333333333333	0
bin	-0.2	0
bin	-0.16666666666667	0
bin	-0.13333333333333	0
bin	-0.1	0
bin	-0.066666666666667	0
bin	-0.033333333333333	0
bin	0	0
bin	0.033333333333333	0
bin	0.066666666666667	0
bin	0.1	0
bin	0.13333333333333	0
bin	0.16666666666667	0
bin	0.2	0
bin	0.23333333333333	0
bin	0.26666666666667	0
bin	0.3	0
bin	0.33333333333333	0
bin	0.36666666666667	0
bin	0.4	0
bin	0.43333333333333	0
bin	0.46666666666667	0
bin	0.5	0
statistic Throughput.sourceHost.wlan[0].radio bitErrorRate:histogram
field count 0
field mean -nan
field stddev -nan
field min -nan
field max -nan
field sum 0
field sqrsum 0
attr source bitErrorRate
attr title "Bit error rate, histogram"
bin	-inf	0
bin	-0.5	0
bin	-0.46666666666667	0
bin	-0.43333333333333	0
bin	-0.4	0
bin	-0.36666666666667	0
bin	-0.33333333333333	0
bin	-0.3	0
bin	-0.26666666666667	0
bin	-0.23333333333333	0
bin	-0.2	0
bin	-0.16666666666667	0
bin	-0.13333333333333	0
bin	-0.1	0
bin	-0.066666666666667	0
bin	-0.033333333333333	0
bin	0	0
bin	0.033333333333333	0
bin	0.066666666666667	0
bin	0.1	0
bin	0.13333333333333	0
bin	0.16666666666667	0
bin	0.2	0
bin	0.23333333333333	0
bin	0.26666666666667	0
bin	0.3	0
bin	0.33333333333333	0
bin	0.36666666666667	0
bin	0.4	0
bin	0.43333333333333	0
bin	0.46666666666667	0
bin	0.5	0
statistic Throughput.sourceHost.wlan[0].radio packetErrorRate:histogram
field count 1090
field mean 0
field stddev 0
field min 0
field max 0
field sum 0
field sqrsum 0
attr source packetErrorRate
attr title "Packet error rate, histogram"
bin	-inf	0
bin	-0.5	0
bin	-0.46666666666667	0
bin	-0.43333333333333	0
bin	-0.4	0
bin	-0.36666666666667	0
bin	-0.33333333333333	0
bin	-0.3	0
bin	-0.26666666666667	0
bin	-0.23333333333333	0
bin	-0.2	0
bin	-0.16666666666667	0
bin	-0.13333333333333	0
bin	-0.1	0
bin	-0.066666666666667	0
bin	-0.033333333333333	0
bin	0	1090
bin	0.033333333333333	0
bin	0.066666666666667	0
bin	0.1	0
bin	0.13333333333333	0
bin	0.16666666666667	0
bin	0.2	0
bin	0.23333333333333	0
bin	0.26666666666667	0
bin	0.3	0
bin	0.33333333333333	0
bin	0.36666666666667	0
bin	0.4	0
bin	0.43333333333333	0
bin	0.46666666666667	0
bin	0.5	0
statistic Throughput.sourceHost.wlan[0].radio minSNIR:histogram
field count 1090
field mean 195657755.21039
field stddev 7.2565476591979
field min 195657755.21039
field max 195657755.21039
field sum 213266953179.32
field sqrsum 4.1727333319625e+19
attr source minSNIR
attr title "Min SNIR, histogram"
bin	-inf	0
bin	195657754.71039	0
bin	195657754.74372	0
bin	195657754.77705	0
bin	195657754.81039	0
bin	195657754.84372	0
bin	195657754.87705	0
bin	195657754.91039	0
bin	195657754.94372	0
bin	195657754.97705	0
bin	195657755.01039	0
bin	195657755.04372	0
bin	195657755.07705	0
bin	195657755.11039	0
bin	195657755.14372	0
bin	195657755.17705	0
bin	195657755.21039	1090
bin	195657755.24372	0
bin	195657755.27705	0
bin	195657755.31039	0
bin	195657755.34372	0
bin	195657755.37705	0
bin	195657755.41039	0
bin	195657755.44372	0
bin	195657755.47705	0
bin	195657755.51039	0
bin	195657755.54372	0
bin	195657755.57705	0
bin	195657755.61039	0
bin	195657755.64372	0
bin	195657755.67705	0
bin	195657755.71039	0
scalar Throughput.sourceHost.ipv4.ip packetDropAddressResolutionFailed:count 0
attr interpolationmode none
attr source packetDropReasonIsAddressResolutionFailed(packetDrop)
attr title "packet drop: address resolution failed, count"
scalar Throughput.sourceHost.ipv4.ip packetDropAddressResolutionFailed:sum(packetBytes) 0
attr interpolationmode none
attr source packetDropReasonIsAddressResolutionFailed(packetDrop)
attr title "packet drop: address resolution failed, sum(packetBytes)"
scalar Throughput.sourceHost.ipv4.ip packetDropHopLimitReached:count 0
attr interpolationmode none
attr source packetDropReasonIsHopLimitReached(packetDrop)
attr title "packet drop: hop limit reached, count"
scalar Throughput.sourceHost.ipv4.ip packetDropHopLimitReached:sum(packetBytes) 0
attr interpolationmode none
attr source packetDropReasonIsHopLimitReached(packetDrop)
attr title "packet drop: hop limit reached, sum(packetBytes)"
scalar Throughput.sourceHost.ipv4.ip packetDropForwardingDisabled:count 0
attr interpolationmode none
attr source packetDropReasonIsForwardingDisabled(packetDrop)
attr title "packet drop: forwarding disabled, count"
scalar Throughput.sourceHost.ipv4.ip packetDropForwardingDisabled:sum(packetBytes) 0
attr interpolationmode none
attr source packetDropReasonIsForwardingDisabled(packetDrop)
attr title "packet drop: forwarding disabled, sum(packetBytes)"
scalar Throughput.sourceHost.ipv4.ip packetDropNoInterfaceFound:count 0
attr interpolationmode none
attr source packetDropReasonIsNoInterfaceFound(packetDrop)
attr title "packet drop: no interface found, count"
scalar Throughput.sourceHost.ipv4.ip packetDropNoInterfaceFound:sum(packetBytes) 0
attr interpolationmode none
attr source packetDropReasonIsNoInterfaceFound(packetDrop)
attr title "packet drop: no interface found, sum(packetBytes)"
scalar Throughput.sourceHost.ipv4.ip packetDropNoRouteFound:count 0
attr interpolationmode none
attr source packetDropReasonIsNoRouteFound(packetDrop)
attr title "packet drop: no route found, count"
scalar Throughput.sourceHost.ipv4.ip packetDropNoRouteFound:sum(packetBytes) 0
attr interpolationmode none
attr source packetDropReasonIsNoRouteFound(packetDrop)
attr title "packet drop: no route found, sum(packetBytes)"
scalar Throughput.sourceHost.ipv4.ip packetDropUndefined:count 0
attr interpolationmode none
attr source packetDropReasonIsUndefined(packetDrop)
attr title "packet drop: undefined, count"
scalar Throughput.sourceHost.ipv4.ip packetDropUndefined:sum(packetBytes) 0
attr interpolationmode none
attr source packetDropReasonIsUndefined(packetDrop)
attr title "packet drop: undefined, sum(packetBytes)"
scalar Throughput.sourceHost.udp droppedPkBadChecksum:count 0
attr interpolationmode none
attr title "packets dropped (checksum error), count"
scalar Throughput.sourceHost.udp droppedPkWrongPort:count 0
attr interpolationmode none
attr title "packets dropped (wrong port), count"
scalar Throughput.sourceHost.udp passedUpPk:count 0
attr interpolationmode none
attr title "packets passed up, count"
scalar Throughput.sourceHost.udp rcvdPk:count 0
attr interpolationmode none
attr source rcvdPk
attr title "packets received, count"
scalar Throughput.sourceHost.udp rcvdPk:sum(packetBytes) 0
attr interpolationmode none
attr source rcvdPk
attr title "packets received, sum(packetBytes)"
scalar Throughput.sourceHost.udp sentPk:count 662
attr interpolationmode none
attr source sentPk
attr title "packets sent, count"
scalar Throughput.sourceHost.udp sentPk:sum(packetBytes) 1506712
attr interpolationmode none
attr source sentPk
attr title "packets sent, sum(packetBytes)"
scalar Throughput.sourceHost.app[0] "packets sent" 662
scalar Throughput.sourceHost.app[0] "packets received" 0
scalar Throughput.sourceHost.app[0] rcvdPk:count 0
attr interpolationmode none
attr source rcvdPk
attr title "packets received, count"
scalar Throughput.sourceHost.app[0] rcvdPk:sum(packetBytes) 0
attr interpolationmode none
attr source rcvdPk
attr title "packets received, sum(packetBytes)"
scalar Throughput.sourceHost.app[0] throughput:mean -nan
attr source throughput(rcvdPk)
attr title "throughput, mean"
attr unit bps
statistic Throughput.sourceHost.app[0] rcvdPkLifetime:stats
field count 0
field mean -nan
field stddev -nan
field min -nan
field max -nan
field sum 0
field sqrsum 0
attr interpolationmode none
attr source messageAge(rcvdPk)
attr title "received packet lifetime, stats"
attr unit s
scalar Throughput.sourceHost.app[0] sentPk:count 662
attr interpolationmode none
attr source sentPk
attr title "packets sent, count"
scalar Throughput.sourceHost.app[0] sentPk:sum(packetBytes) 1501416
attr interpolationmode none
attr source sentPk
attr title "packets sent, sum(packetBytes)"
scalar Throughput.destinationHost.lo[0].lo rcvdPkFromHL:count 0
attr interpolationmode none
attr source packetReceivedFromUpper
attr title "packets received from higher layer, count"
scalar Throughput.destinationHost.lo[0].lo rcvdPkFromHL:sum(packetBytes) 0
attr interpolationmode none
attr source packetReceivedFromUpper
attr title "packets received from higher layer, sum(packetBytes)"
scalar Throughput.destinationHost.lo[0].lo passedUpPk:count 0
attr interpolationmode none
attr source packetSentToUpper
attr title "packets passed to higher layer, count"
scalar Throughput.destinationHost.lo[0].lo passedUpPk:sum(packetBytes) 0
attr interpolationmode none
attr source packetSentToUpper
attr title "packets passed to higher layer, sum(packetBytes)"
scalar Throughput.destinationHost.wlan[0].mac packetDropIncorrectlyReceived:count 0
attr interpolationmode none
attr source packetDropReasonIsIncorrectlyReceived(packetDrop)
attr title "packet drop: incorrectly received, count"
scalar Throughput.destinationHost.wlan[0].mac packetDropIncorrectlyReceived:sum(packetBytes) 0
attr interpolationmode none
attr source packetDropReasonIsIncorrectlyReceived(packetDrop)
attr title "packet drop: incorrectly received, sum(packetBytes)"
scalar Throughput.destinationHost.wlan[0].mac packetDropNotAddressedToUs:count 0
attr interpolationmode none
attr source packetDropReasonIsNotAddressedToUs(packetDrop)
attr title "packet drop: not addressed to us, count"
scalar Throughput.destinationHost.wlan[0].mac packetDropNotAddressedToUs:sum(packetBytes) 0
attr interpolationmode none
attr source packetDropReasonIsNotAddressedToUs(packetDrop)
attr title "packet drop: not addressed to us, sum(packetBytes)"
scalar Throughput.destinationHost.wlan[0].mac packetDropQueueOverflow:count 0
attr interpolationmode none
attr source packetDropReasonIsQueueOverflow(packetDrop)
attr title "packet drop: queue overflow, count"
scalar Throughput.destinationHost.wlan[0].mac packetDropQueueOverflow:sum(packetBytes) 0
attr interpolationmode none
attr source packetDropReasonIsQueueOverflow(packetDrop)
attr title "packet drop: queue overflow, sum(packetBytes)"
scalar Throughput.destinationHost.wlan[0].mac packetDropRetryLimitReached:count 0
attr interpolationmode none
attr source packetDropReasonIsRetryLimitReached(packetDrop)
attr title "packet drop: retry limit reached, count"
scalar Throughput.destinationHost.wlan[0].mac packetDropRetryLimitReached:sum(packetBytes) 0
attr interpolationmode none
attr source packetDropReasonIsRetryLimitReached(packetDrop)
attr title "packet drop: retry limit reached, sum(packetBytes)"
scalar Throughput.destinationHost.wlan[0].mac linkBreak:count 0
attr interpolationmode none
attr source linkBreak
attr title "link break, count"
scalar Throughput.destinationHost.wlan[0].mac rcvdPkFromLL:count 1090
attr interpolationmode none
attr source packetReceivedFromLower
attr title "packets received from lower layer, count"
scalar Throughput.destinationHost.wlan[0].mac rcvdPkFromLL:sum(packetBytes) 1286200
attr interpolationmode none
attr source packetReceivedFromLower
attr title "packets received from lower layer, sum(packetBytes)"
scalar Throughput.destinationHost.wlan[0].mac sentDownPk:count 1090
attr interpolationmode none
attr source packetSentToLower
attr title "packets sent to lower layer, count"
scalar Throughput.destinationHost.wlan[0].mac sentDownPk:sum(packetBytes) 15260
attr interpolationmode none
attr source packetSentToLower
attr title "packets sent to lower layer, sum(packetBytes)"
scalar Throughput.destinationHost.wlan[0].mac rcvdPkFromHL:count 0
attr interpolationmode none
attr source packetReceivedFromUpper
attr title "packets received from higher layer, count"
scalar Throughput.destinationHost.wlan[0].mac rcvdPkFromHL:sum(packetBytes) 0
attr interpolationmode none
attr source packetReceivedFromUpper
attr title "packets received from higher layer, sum(packetBytes)"
scalar Throughput.destinationHost.wlan[0].mac passedUpPk:count 545
attr interpolationmode none
attr source packetSentToUpper
attr title "packets passed to higher layer, count"
scalar Throughput.destinationHost.wlan[0].mac passedUpPk:sum(packetBytes) 1255680
attr interpolationmode none
attr source packetSentToUpper
attr title "packets passed to higher layer, sum(packetBytes)"
[...]
bin	195657755.61039	0
bin	195657755.64372	0
bin	195657755.67705	0
bin	195657755.71039	0
scalar Throughput.sourceHost.ipv4.ip packetDropAddressResolutionFailed:count 0
attr interpolationmode none
attr source packetDropReasonIsAddressResolutionFailed(packetDrop)
attr title "packet drop: address resolution failed, count"
scalar Throughput.sourceHost.ipv4.ip packetDropAddressResolutionFailed:sum(packetBytes) 0
attr interpolationmode none
attr source packetDropReasonIsAddressResolutionFailed(packetDrop)
attr title "packet drop: address resolution failed, sum(packetBytes)"
scalar Throughput.sourceHost.ipv4.ip packetDropHopLimitReached:count 0
attr interpolationmode none
attr source packetDropReasonIsHopLimitReached(packetDrop)
attr title "packet drop: hop limit reached, count"
scalar Throughput.sourceHost.ipv4.ip packetDropHopLimitReached:sum(packetBytes) 0
attr interpolationmode none
attr source packetDropReasonIsHopLimitReached(packetDrop)
attr title "packet drop: hop limit reached, sum(packetBytes)"
scalar Throughput.sourceHost.ipv4.ip packetDropForwardingDisabled:count 0
attr interpolationmode none
attr source packetDropReasonIsForwardingDisabled(packetDrop)
attr title "packet drop: forwarding disabled, count"
scalar Throughput.sourceHost.ipv4.ip packetDropForwardingDisabled:sum(packetBytes) 0
attr interpolationmode none
attr source packetDropReasonIsForwardingDisabled(packetDrop)
attr title "packet drop: forwarding disabled, sum(packetBytes)"
scalar Throughput.sourceHost.ipv4.ip packetDropNoInterfaceFound:count 0
attr interpolationmode none
attr source packetDropReasonIsNoInterfaceFound(packetDrop)
attr title "packet drop: no interface found, count"
scalar Throughput.sourceHost.ipv4.ip packetDropNoInterfaceFound:sum(packetBytes) 0
attr interpolationmode none
attr source packetDropReasonIsNoInterfaceFound(packetDrop)
attr title "packet drop: no interface found, sum(packetBytes)"
scalar Throughput.sourceHost.ipv4.ip packetDropNoRouteFound:count 0
attr interpolationmode none
attr source packetDropReasonIsNoRouteFound(packetDrop)
attr title "packet drop: no route found, count"
scalar Throughput.sourceHost.ipv4.ip packetDropNoRouteFound:sum(packetBytes) 0
attr interpolationmode none
attr source packetDropReasonIsNoRouteFound(packetDrop)
attr title "packet drop: no route found, sum(packetBytes)"
scalar Throughput.sourceHost.ipv4.ip packetDropUndefined:count 0
attr interpolationmode none
attr source packetDropReasonIsUndefined(packetDrop)
attr title "packet drop: undefined, count"
scalar Throughput.sourceHost.ipv4.ip packetDropUndefined:sum(packetBytes) 0
attr interpolationmode none
attr source packetDropReasonIsUndefined(packetDrop)
attr title "packet drop: undefined, sum(packetBytes)"
scalar Throughput.sourceHost.udp droppedPkBadChecksum:count 0
attr interpolationmode none
attr title "packets dropped (checksum error), count"
scalar Throughput.sourceHost.udp droppedPkWrongPort:count 0
attr interpolationmode none
attr title "packets dropped (wrong port), count"
scalar Throughput.sourceHost.udp passedUpPk:count 0
attr interpolationmode none
attr title "packets passed up, count"
scalar Throughput.sourceHost.udp rcvdPk:count 0
attr interpolationmode none
attr source rcvdPk
attr title "packets received, count"
scalar Throughput.sourceHost.udp rcvdPk:sum(packetBytes) 0
attr interpolationmode none
attr source rcvdPk
attr title "packets received, sum(packetBytes)"
scalar Throughput.sourceHost.udp sentPk:count 2977
attr interpolationmode none
attr source sentPk
attr title "packets sent, count"
scalar Throughput.sourceHost.udp sentPk:sum(packetBytes) 6775652
attr interpolationmode none
attr source sentPk
attr title "packets sent, sum(packetBytes)"
scalar Throughput.sourceHost.app[0] "packets sent" 2977
scalar Throughput.sourceHost.app[0] "packets received" 0
scalar Throughput.sourceHost.app[0] rcvdPk:count 0
attr interpolationmode none
attr source rcvdPk
attr title "packets received, count"
scalar Throughput.sourceHost.app[0] rcvdPk:sum(packetBytes) 0
attr interpolationmode none
attr source rcvdPk
attr title "packets received, sum(packetBytes)"
scalar Throughput.sourceHost.app[0] throughput:mean -nan
attr source throughput(rcvdPk)
attr title "throughput, mean"
attr unit bps
statistic Throughput.sourceHost.app[0] rcvdPkLifetime:stats
field count 0
field mean -nan
field stddev -nan
field min -nan
field max -nan
field sum 0
field sqrsum 0
attr interpolationmode none
attr source messageAge(rcvdPk)
attr title "received packet lifetime, stats"
attr unit s
scalar Throughput.sourceHost.app[0] sentPk:count 2977
attr interpolationmode none
attr source sentPk
attr title "packets sent, count"
scalar Throughput.sourceHost.app[0] sentPk:sum(packetBytes) 6751836
attr interpolationmode none
attr source sentPk
attr title "packets sent, sum(packetBytes)"
scalar Throughput.destinationHost.lo[0].lo rcvdPkFromHL:count 0
attr interpolationmode none
attr source packetReceivedFromUpper
attr title "packets received from higher layer, count"
scalar Throughput.destinationHost.lo[0].lo rcvdPkFromHL:sum(packetBytes) 0
attr interpolationmode none
attr source packetReceivedFromUpper
attr title "packets received from higher layer, sum(packetBytes)"
scalar Throughput.destinationHost.lo[0].lo passedUpPk:count 0
attr interpolationmode none
attr source packetSentToUpper
attr title "packets passed to higher layer, count"
scalar Throughput.destinationHost.lo[0].lo passedUpPk:sum(packetBytes) 0
attr interpolationmode none
attr source packetSentToUpper
attr title "packets passed to higher layer, sum(packetBytes)"
scalar Throughput.destinationHost.wlan[0].mac packetDropIncorrectlyReceived:count 0
attr interpolationmode none
attr source packetDropReasonIsIncorrectlyReceived(packetDrop)
attr title "packet drop: incorrectly received, count"
scalar Throughput.destinationHost.wlan[0].mac packetDropIncorrectlyReceived:sum(packetBytes) 0
attr interpolationmode none
attr source packetDropReasonIsIncorrectlyReceived(packetDrop)
attr title "packet drop: incorrectly received, sum(packetBytes)"
scalar Throughput.destinationHost.wlan[0].mac packetDropNotAddressedToUs:count 0
attr interpolationmode none
attr source packetDropReasonIsNotAddressedToUs(packetDrop)
attr title "packet drop: not addressed to us, count"
scalar Throughput.destinationHost.wlan[0].mac packetDropNotAddressedToUs:sum(packetBytes) 0
attr interpolationmode none
attr source packetDropReasonIsNotAddressedToUs(packetDrop)
attr title "packet drop: not addressed to us, sum(packetBytes)"
scalar Throughput.destinationHost.wlan[0].mac packetDropQueueOverflow:count 0
attr interpolationmode none
attr source packetDropReasonIsQueueOverflow(packetDrop)
attr title "packet drop: queue overflow, count"
scalar Throughput.destinationHost.wlan[0].mac packetDropQueueOverflow:sum(packetBytes) 0
attr interpolationmode none
attr source packetDropReasonIsQueueOverflow(packetDrop)
attr title "packet drop: queue overflow, sum(packetBytes)"
scalar Throughput.destinationHost.wlan[0].mac packetDropRetryLimitReached:count 0
attr interpolationmode none
attr source packetDropReasonIsRetryLimitReached(packetDrop)
attr title "packet drop: retry limit reached, count"
scalar Throughput.destinationHost.wlan[0].mac packetDropRetryLimitReached:sum(packetBytes) 0
attr interpolationmode none
attr source packetDropReasonIsRetryLimitReached(packetDrop)
attr title "packet drop: retry limit reached, sum(packetBytes)"
scalar Throughput.destinationHost.wlan[0].mac linkBreak:count 0
attr interpolationmode none
attr source linkBreak
attr title "link break, count"
scalar Throughput.destinationHost.wlan[0].mac rcvdPkFromLL:count 3350
attr interpolationmode none
attr source packetReceivedFromLower
attr title "packets received from lower layer, count"
scalar Throughput.destinationHost.wlan[0].mac rcvdPkFromLL:sum(packetBytes) 3953000
attr interpolationmode none
attr source packetReceivedFromLower
attr title "packets received from lower layer, sum(packetBytes)"
scalar Throughput.destinationHost.wlan[0].mac sentDownPk:count 3350
attr interpolationmode none
attr source packetSentToLower
attr title "packets sent to lower layer, count"
scalar Throughput.destinationHost.wlan[0].mac sentDownPk:sum(packetBytes) 46900
attr interpolationmode none
attr source packetSentToLower
attr title "packets sent to lower layer, sum(packetBytes)"
scalar Throughput.destinationHost.wlan[0].mac rcvdPkFromHL:count 0
attr interpolationmode none
attr source packetReceivedFromUpper
attr title "packets received from higher layer, count"
scalar Throughput.destinationHost.wlan[0].mac rcvdPkFromHL:sum(packetBytes) 0
attr interpolationmode none
attr source packetReceivedFromUpper
attr title "packets received from higher layer, sum(packetBytes)"
scalar Throughput.destinationHost.wlan[0].mac passedUpPk:count 1675
attr interpolationmode none
attr source packetSentToUpper
attr title "packets passed to higher layer, count"
scalar Throughput.destinationHost.wlan[0].mac passedUpPk:sum(packetBytes) 3859200
attr interpolationmode none
attr source packetSentToUpper
attr title "packets passed to higher layer, sum(packetBytes)"
statistic Throughput.destinationHost.wlan[0].radio radioChannel:histogram
field count 1
field mean 0
field stddev -nan
field min 0
field max 0
field sum 0
field sqrsum 0
attr interpolationmode sample-hold
attr source radioChannelChanged
attr title "Radio channel, histogram"
bin	-inf	0
bin	-0.5	0
bin	-0.46666666666667	0
bin	-0.43333333333333	0
bin	-0.4	0
bin	-0.36666666666667	0
bin	-0.33333333333333	0
bin	-0.3	0
bin	-0.26666666666667	0
bin	-0.23333333333333	0
bin	-0.2	0
bin	-0.16666666666667	0
bin	-0.13333333333333	0
bin	-0.1	0
bin	-0.066666666666667	0
bin	-0.033333333333333	0
bin	0	1
bin	0.033333333333333	0
bin	0.066666666666667	0
bin	0.1	0
bin	0.13333333333333	0
bin	0.16666666666667	0
bin	0.2	0
bin	0.23333333333333	0
bin	0.26666666666667	0
bin	0.3	0
bin	0.33333333333333	0
bin	0.36666666666667	0
bin	0.4	0
bin	0.43333333333333	0
bin	0.46666666666667	0
bin	0.5	0
scalar Throughput.destinationHost.wlan[0].radio transmissionState:count 13400
attr interpolationmode sample-hold
attr source transmissionStateChanged
attr title "Radio transmission state, count"
scalar Throughput.destinationHost.wlan[0].radio receptionState:count 13402
attr interpolationmode sample-hold
attr source receptionStateChanged
attr title "Radio reception state, count"
scalar Throughput.destinationHost.wlan[0].radio radioMode:count 6702
attr interpolationmode sample-hold
attr source radioModeChanged
attr title "Radio mode, count"
statistic Throughput.destinationHost.wlan[0].radio symbolErrorRate:histogram
field count 0
field mean -nan
field stddev -nan
field min -nan
field max -nan
field sum 0
field sqrsum 0
attr source symbolErrorRate
attr title "Symbol error rate, histogram"
bin	-inf	0
bin	-0.5	0
bin	-0.46666666666667	0
bin	-0.43333333333333	0
bin	-0.4	0
bin	-0.36666666666667	0
bin	-0.33333333333333	0
bin	-0.3	0
bin	-0.26666666666667	0
bin	-0.23333333333333	0
bin	-0.2	0
bin	-0.16666666666667	0
bin	-0.13333333333333	0
bin	-0.1	0
bin	-0.066666666666667	0
bin	-0.033333333333333	0
bin	0	0
bin	0.033333333333333	0
bin	0.066666666666667	0
bin	0.1	0
bin	0.13333333333333	0
bin	0.16666666666667	0
bin	0.2	0
bin	0.23333333333333	0
bin	0.26666666666667	0
bin	0.3	0
bin	0.33333333333333	0
bin	0.36666666666667	0
bin	0.4	0
bin	0.43333333333333	0
bin	0.46666666666667	0
bin	0.5	0
statistic Throughput.destinationHost.wlan[0].radio bitErrorRate:histogram
field count 0
field mean -nan
field stddev -nan
field min -nan
field max -nan
field sum 0
field sqrsum 0
attr source bitErrorRate
attr title "Bit error rate, histogram"
bin	-inf	0
bin	-0.5	0
bin	-0.46666666666667	0
bin	-0.43333333333333	0
bin	-0.4	0
bin	-0.36666666666667	0
bin	-0.33333333333333	0
bin	-0.3	0
bin	-0.26666666666667	0
bin	-0.23333333333333	0
bin	-0.2	0
bin	-0.16666666666667	0
bin	-0.13333333333333	0
bin	-0.1	0
bin	-0.066666666666667	0
bin	-0.033333333333333	0
bin	0	0
bin	0.033333333333333	0
bin	0.066666666666667	0
bin	0.1	0
bin	0.13333333333333	0
bin	0.16666666666667	0
bin	0.2	0
bin	0.23333333333333	0
bin	0.26666666666667	0
bin	0.3	0
bin	0.33333333333333	0
bin	0.36666666666667	0
bin	0.4	0
bin	0.43333333333333	0
bin	0.46666666666667	0
bin	0.5	0
statistic Throughput.destinationHost.wlan[0].radio packetErrorRate:histogram
field count 3350
field mean 0
field stddev 0
field min 0
field max 0
field sum 0
field sqrsum 0
attr source packetErrorRate
attr title "Packet error rate, histogram"
bin	-inf	0
bin	-0.5	0
bin	-0.46666666666667	0
bin	-0.43333333333333	0
bin	-0.4	0
bin	-0.36666666666667	0
bin	-0.33333333333333	0
bin	-0.3	0
bin	-0.26666666666667	0
bin	-0.23333333333333	0
bin	-0.2	0
bin	-0.16666666666667	0
bin	-0.13333333333333	0
bin	-0.1	0
bin	-0.066666666666667	0
bin	-0.033333333333333	0
bin	0	3350
bin	0.033333333333333	0
bin	0.066666666666667	0
bin	0.1	0
bin	0.13333333333333	0
bin	0.16666666666667	0
bin	0.2	0
bin	0.23333333333333	0
bin	0.26666666666667	0
bin	0.3	0
bin	0.33333333333333	0
bin	0.36666666666667	0
bin	0.4	0
bin	0.43333333333333	0
bin	0.46666666666667	0
bin	0.5	0
statistic Throughput.destinationHost.wlan[0].radio minSNIR:histogram
field count 3350
field mean 195657755.21038
field stddev 65.985330943108
field min 195657755.21039
field max 195657755.21039
field sum 655453479954.77
field sqrsum 1.2824455653279e+20
attr source minSNIR
attr title "Min SNIR, histogram"
bin	-inf	0
bin	195657754.71039	0
bin	195657754.74372	0
bin	195657754.77705	0
bin	195657754.81039	0
bin	195657754.84372	0
bin	195657754.87705	0
bin	195657754.91039	0
bin	195657754.94372	0
bin	195657754.97705	0
bin	195657755.01039	0
bin	195657755.04372	0
bin	195657755.07705	0
bin	195657755.11039	0
bin	195657755.14372	0
bin	195657755.17705	0
bin	195657755.21039	3350
bin	195657755.24372	0
bin	195657755.27705	0
bin	195657755.31039	0
bin	195657755.34372	0
bin	195657755.37705	0
bin	195657755.41039	0
bin	195657755.44372	0
bin	195657755.47705	0
bin	195657755.51039	0
bin	195657755.54372	0
bin	195657755.57705	0
bin	195657755.61039	0
bin	195657755.64372	0
bin	195657755.67705	0
bin	195657755.71039	0
scalar Throughput.destinationHost.ipv4.ip packetDropAddressResolutionFailed:count 0
attr interpolationmode none
attr source packetDropReasonIsAddressResolutionFailed(packetDrop)
attr title "packet drop: address resolution failed, count"
scalar Throughput.destinationHost.ipv4.ip packetDropAddressResolutionFailed:sum(packetBytes) 0
attr interpolationmode none
attr source packetDropReasonIsAddressResolutionFailed(packetDrop)
attr title "packet drop: address resolution failed, sum(packetBytes)"
scalar Throughput.destinationHost.ipv4.ip packetDropHopLimitReached:count 0
attr interpolationmode none
attr source packetDropReasonIsHopLimitReached(packetDrop)
attr title "packet drop: hop limit reached, count"
scalar Throughput.destinationHost.ipv4.ip packetDropHopLimitReached:sum(packetBytes) 0
attr interpolationmode none
attr source packetDropReasonIsHopLimitReached(packetDrop)
attr title "packet drop: hop limit reached, sum(packetBytes)"
scalar Throughput.destinationHost.ipv4.ip packetDropForwardingDisabled:count 0
attr interpolationmode none
attr source packetDropReasonIsForwardingDisabled(packetDrop)
attr title "packet drop: forwarding disabled, count"
scalar Throughput.destinationHost.ipv4.ip packetDropForwardingDisabled:sum(packetBytes) 0
attr interpolationmode none
attr source packetDropReasonIsForwardingDisabled(packetDrop)
attr title "packet drop: forwarding disabled, sum(packetBytes)"
scalar Throughput.destinationHost.ipv4.ip packetDropNoInterfaceFound:count 0
attr interpolationmode none
attr source packetDropReasonIsNoInterfaceFound(packetDrop)
attr title "packet drop: no interface found, count"
scalar Throughput.destinationHost.ipv4.ip packetDropNoInterfaceFound:sum(packetBytes) 0
attr interpolationmode none
attr source packetDropReasonIsNoInterfaceFound(packetDrop)
attr title "packet drop: no interface found, sum(packetBytes)"
scalar Throughput.destinationHost.ipv4.ip packetDropNoRouteFound:count 0
attr interpolationmode none
attr source packetDropReasonIsNoRouteFound(packetDrop)
attr title "packet drop: no route found, count"
scalar Throughput.destinationHost.ipv4.ip packetDropNoRouteFound:sum(packetBytes) 0
attr interpolationmode none
attr source packetDropReasonIsNoRouteFound(packetDrop)
attr title "packet drop: no route found, sum(packetBytes)"
scalar Throughput.destinationHost.ipv4.ip packetDropUndefined:count 0
attr interpolationmode none
attr source packetDropReasonIsUndefined(packetDrop)
attr title "packet drop: undefined, count"
scalar Throughput.destinationHost.ipv4.ip packetDropUndefined:sum(packetBytes) 0
attr interpolationmode none
attr source packetDropReasonIsUndefined(packetDrop)
attr title "packet drop: undefined, sum(packetBytes)"
scalar Throughput.destinationHost.udp droppedPkBadChecksum:count 0
attr interpolationmode none
attr title "packets dropped (checksum error), count"
scalar Throughput.destinationHost.udp droppedPkWrongPort:count 0
attr interpolationmode none
attr title "packets dropped (wrong port), count"
scalar Throughput.destinationHost.udp passedUpPk:count 1675
attr interpolationmode none
attr title "packets passed up, count"
scalar Throughput.destinationHost.udp rcvdPk:count 1675
attr interpolationmode none
attr source rcvdPk
attr title "packets received, count"
scalar Throughput.destinationHost.udp rcvdPk:sum(packetBytes) 3812300
attr interpolationmode none
attr source rcvdPk
attr title "packets received, sum(packetBytes)"
scalar Throughput.destinationHost.udp sentPk:count 0
attr interpolationmode none
attr source sentPk
attr title "packets sent, count"
scalar Throughput.destinationHost.udp sentPk:sum(packetBytes) 0
attr interpolationmode none
attr source sentPk
attr title "packets sent, sum(packetBytes)"
scalar Throughput.destinationHost.app[0] rcvdPk:count 1675
attr interpolationmode none
attr source rcvdPk
attr title "packets received, count"
scalar Throughput.destinationHost.app[0] rcvdPk:sum(packetBytes) 3798900
attr interpolationmode none
attr source rcvdPk
attr title "packets received, sum(packetBytes)"
scalar Throughput.destinationHost.app[0] throughput:mean 30409929.536145
attr source throughput(rcvdPk)
attr title "throughput, mean"
attr unit bps
statistic Throughput.destinationHost.app[0] endToEndDelay:histogram
field count 1675
field mean 0
field stddev 0
field min 0
field max 0
field sum 0
field sqrsum 0
attr interpolationmode none
attr source messageAge(rcvdPk)
attr title "end-to-end delay, histogram"
attr unit s
bin	-inf	0
bin	-0.5	0
bin	-0.46666666666667	0
bin	-0.43333333333333	0
bin	-0.4	0
bin	-0.36666666666667	0
bin	-0.33333333333333	0
bin	-0.3	0
bin	-0.26666666666667	0
bin	-0.23333333333333	0
bin	-0.2	0
bin	-0.16666666666667	0
bin	-0.13333333333333	0
bin	-0.1	0
bin	-0.066666666666667	0
bin	-0.033333333333333	0
bin	0	1675
bin	0.033333333333333	0
bin	0.066666666666667	0
bin	0.1	0
bin	0.13333333333333	0
bin	0.16666666666667	0
bin	0.2	0
bin	0.23333333333333	0
bin	0.26666666666667	0
bin	0.3	0
bin	0.33333333333333	0
bin	0.36666666666667	0
bin	0.4	0
bin	0.43333333333333	0
bin	0.46666666666667	0
bin	0.5	0
scalar Throughput.radioMedium.propagation "Arrival computation count" 6701
scalar Throughput.radioMedium "transmission count" 6701
scalar Throughput.radioMedium "signal send count" 6701
scalar Throughput.radioMedium "reception computation count" 6701
scalar Throughput.radioMedium "interference computation count" 53603
scalar Throughput.radioMedium "reception decision computation count" 13400
scalar Throughput.radioMedium "listening decision computation count" 13402
scalar Throughput.radioMedium "reception cache hit" 93.749242092106
attr unit %
scalar Throughput.radioMedium "interference cache hit" 75
attr unit %
scalar Throughput.radioMedium "noise cache hit" 0
attr unit %
scalar Throughput.radioMedium "snir cache hit" 80
attr unit %
scalar Throughput.radioMedium "reception decision cache hit" 0
attr unit %
scalar Throughput.radioMedium "reception result cache hit" 0
attr unit %

