version 2
run General-0-20171027-11:40:36-11653
attr configname General
attr datetime 20171027-11:40:36
attr experiment General
attr inifile omnetpp.ini
attr iterationvars "$bitrate=6, $packetLength=100"
attr iterationvarsf bitrate=6,packetLength=100-
attr measurement "$bitrate=6, $packetLength=100"
attr network Throughput
attr processid 11653
attr repetition 0
attr replication #0
attr resultdir results
attr runnumber 0
attr seedset 0
itervar bitrate 6
itervar packetLength 100
param *.*Host.ipv4.arpType "\"GlobalARP\""
param *.*Host.wlan[*].mgmtType "\"Ieee80211MgmtAdhoc\""
param *.*Host.wlan[*].opMode "\"g(erp)\""
param *.*Host.wlan[*].bitrate 6Mbps
param *.*Host.wlan[*].radio.separateReceptionParts true
param *.*Host.wlan[*].radio.separateTransmissionParts true
param *.sourceHost.numApps 1
param *.sourceHost.app[0].typename "\"UDPBasicApp\""
param *.sourceHost.app[*].destAddresses "\"destinationHost\""
param *.sourceHost.app[*].destPort 5000
param *.sourceHost.app[*].messageLength 100byte
param *.sourceHost.app[*].packetName "\"UDPData-\""
param *.sourceHost.app[*].startTime 0s
param *.sourceHost.app[*].sendInterval "100 * 8 / 6 * 1us"
param *.destinationHost.numApps 1
param *.destinationHost.app[0].typename "\"UDPSink\""
param *.destinationHost.app[*].localPort 5000

scalar Throughput.sourceHost.lo[0].lo rcvdPkFromHL:count 0
attr interpolationmode none
attr source packetReceivedFromUpper
attr title "packets received from higher layer, count"
scalar Throughput.sourceHost.lo[0].lo rcvdPkFromHL:sum(packetBytes) 0
attr interpolationmode none
attr source packetReceivedFromUpper
attr title "packets received from higher layer, sum(packetBytes)"
scalar Throughput.sourceHost.lo[0].lo passedUpPk:count 0
attr interpolationmode none
attr source packetSentToUpper
attr title "packets passed to higher layer, count"
scalar Throughput.sourceHost.lo[0].lo passedUpPk:sum(packetBytes) 0
attr interpolationmode none
attr source packetSentToUpper
attr title "packets passed to higher layer, sum(packetBytes)"
scalar Throughput.sourceHost.wlan[0].mac packetDropIncorrectlyReceived:count 0
attr interpolationmode none
attr source packetDropReasonIsIncorrectlyReceived(packetDrop)
attr title "packet drop: incorrectly received, count"
scalar Throughput.sourceHost.wlan[0].mac packetDropIncorrectlyReceived:sum(packetBytes) 0
attr interpolationmode none
attr source packetDropReasonIsIncorrectlyReceived(packetDrop)
attr title "packet drop: incorrectly received, sum(packetBytes)"
scalar Throughput.sourceHost.wlan[0].mac packetDropNotAddressedToUs:count 0
attr interpolationmode none
attr source packetDropReasonIsNotAddressedToUs(packetDrop)
attr title "packet drop: not addressed to us, count"
scalar Throughput.sourceHost.wlan[0].mac packetDropNotAddressedToUs:sum(packetBytes) 0
attr interpolationmode none
attr source packetDropReasonIsNotAddressedToUs(packetDrop)
attr title "packet drop: not addressed to us, sum(packetBytes)"
scalar Throughput.sourceHost.wlan[0].mac packetDropQueueOverflow:count 5016
attr interpolationmode none
attr source packetDropReasonIsQueueOverflow(packetDrop)
attr title "packet drop: queue overflow, count"
scalar Throughput.sourceHost.wlan[0].mac packetDropQueueOverflow:sum(packetBytes) 822624
attr interpolationmode none
attr source packetDropReasonIsQueueOverflow(packetDrop)
attr title "packet drop: queue overflow, sum(packetBytes)"
scalar Throughput.sourceHost.wlan[0].mac packetDropRetryLimitReached:count 0
attr interpolationmode none
attr source packetDropReasonIsRetryLimitReached(packetDrop)
attr title "packet drop: retry limit reached, count"
scalar Throughput.sourceHost.wlan[0].mac packetDropRetryLimitReached:sum(packetBytes) 0
attr interpolationmode none
attr source packetDropReasonIsRetryLimitReached(packetDrop)
attr title "packet drop: retry limit reached, sum(packetBytes)"
scalar Throughput.sourceHost.wlan[0].mac linkBreak:count 0
attr interpolationmode none
attr source linkBreak
attr title "link break, count"
scalar Throughput.sourceHost.wlan[0].mac rcvdPkFromLL:count 2469
attr interpolationmode none
attr source packetReceivedFromLower
attr title "packets received from lower layer, count"
scalar Throughput.sourceHost.wlan[0].mac rcvdPkFromLL:sum(packetBytes) 34566
attr interpolationmode none
attr source packetReceivedFromLower
attr title "packets received from lower layer, sum(packetBytes)"
scalar Throughput.sourceHost.wlan[0].mac sentDownPk:count 2470
attr interpolationmode none
attr source packetSentToLower
attr title "packets sent to lower layer, count"
scalar Throughput.sourceHost.wlan[0].mac sentDownPk:sum(packetBytes) 405080
attr interpolationmode none
attr source packetSentToLower
attr title "packets sent to lower layer, sum(packetBytes)"
scalar Throughput.sourceHost.wlan[0].mac rcvdPkFromHL:count 7501
attr interpolationmode none
attr source packetReceivedFromUpper
attr title "packets received from higher layer, count"
scalar Throughput.sourceHost.wlan[0].mac rcvdPkFromHL:sum(packetBytes) 1020136
attr interpolationmode none
attr source packetReceivedFromUpper
attr title "packets received from higher layer, sum(packetBytes)"
scalar Throughput.sourceHost.wlan[0].mac passedUpPk:count 0
attr interpolationmode none
attr source packetSentToUpper
attr title "packets passed to higher layer, count"
scalar Throughput.sourceHost.wlan[0].mac passedUpPk:sum(packetBytes) 0
attr interpolationmode none
attr source packetSentToUpper
attr title "packets passed to higher layer, sum(packetBytes)"
statistic Throughput.sourceHost.wlan[0].radio radioChannel:histogram
field count 1
field mean 0
field stddev -nan
field min 0
field max 0
field sum 0
field sqrsum 0
attr interpolationmode sample-hold
attr source radioChannelChanged
attr title "Radio channel, histogram"
bin	-inf	0
bin	-0.5	0
bin	-0.46666666666667	0
bin	-0.43333333333333	0
bin	-0.4	0
bin	-0.36666666666667	0
bin	-0.33333333333333	0
bin	-0.3	0
bin	-0.26666666666667	0
bin	-0.23333333333333	0
bin	-0.2	0
bin	-0.16666666666667	0
bin	-0.13333333333333	0
bin	-0.1	0
bin	-0.066666666666667	0
bin	-0.033333333333333	0
bin	0	1
bin	0.033333333333333	0
bin	0.066666666666667	0
bin	0.1	0
bin	0.13333333333333	0
bin	0.16666666666667	0
bin	0.2	0
bin	0.23333333333333	0
bin	0.26666666666667	0
bin	0.3	0
bin	0.33333333333333	0
bin	0.36666666666667	0
bin	0.4	0
bin	0.43333333333333	0
bin	0.46666666666667	0
bin	0.5	0
scalar Throughput.sourceHost.wlan[0].radio transmissionState:count 9878
attr interpolationmode sample-hold
attr source transmissionStateChanged
attr title "Radio transmission state, count"
scalar Throughput.sourceHost.wlan[0].radio receptionState:count 9878
attr interpolationmode sample-hold
attr source receptionStateChanged
attr title "Radio reception state, count"
scalar Throughput.sourceHost.wlan[0].radio radioMode:count 4941
attr interpolationmode sample-hold
attr source radioModeChanged
attr title "Radio mode, count"
statistic Throughput.sourceHost.wlan[0].radio symbolErrorRate:histogram
field count 0
field mean -nan
field stddev -nan
field min -nan
field max -nan
field sum 0
field sqrsum 0
attr source symbolErrorRate
attr title "Symbol error rate, histogram"
bin	-inf	0
bin	-0.5	0
bin	-0.46666666666667	0
bin	-0.43333333333333	0
bin	-0.4	0
bin	-0.36666666666667	0
bin	-0.33333333333333	0
bin	-0.3	0
bin	-0.26666666666667	0
bin	-0.23333333333333	0
bin	-0.2	0
bin	-0.16666666666667	0
bin	-0.13333333333333	0
bin	-0.1	0
bin	-0.066666666666667	0
bin	-0.033333333333333	0
bin	0	0
bin	0.033333333333333	0
bin	0.066666666666667	0
bin	0.1	0
bin	0.13333333333333	0
bin	0.16666666666667	0
bin	0.2	0
bin	0.23333333333333	0
bin	0.26666666666667	0
bin	0.3	0
bin	0.33333333333333	0
bin	0.36666666666667	0
bin	0.4	0
bin	0.43333333333333	0
bin	0.46666666666667	0
bin	0.5	0
statistic Throughput.sourceHost.wlan[0].radio bitErrorRate:histogram
field count 0
field mean -nan
field stddev -nan
field min -nan
field max -nan
field sum 0
field sqrsum 0
attr source bitErrorRate
attr title "Bit error rate, histogram"
bin	-inf	0
bin	-0.5	0
bin	-0.46666666666667	0
bin	-0.43333333333333	0
bin	-0.4	0
bin	-0.36666666666667	0
bin	-0.33333333333333	0
bin	-0.3	0
bin	-0.26666666666667	0
bin	-0.23333333333333	0
bin	-0.2	0
bin	-0.16666666666667	0
bin	-0.13333333333333	0
bin	-0.1	0
bin	-0.066666666666667	0
bin	-0.033333333333333	0
bin	0	0
bin	0.033333333333333	0
bin	0.066666666666667	0
bin	0.1	0
bin	0.13333333333333	0
bin	0.16666666666667	0
bin	0.2	0
bin	0.23333333333333	0
bin	0.26666666666667	0
bin	0.3	0
bin	0.33333333333333	0
bin	0.36666666666667	0
bin	0.4	0
bin	0.43333333333333	0
bin	0.46666666666667	0
bin	0.5	0
statistic Throughput.sourceHost.wlan[0].radio packetErrorRate:histogram
field count 2469
field mean 0
field stddev 0
field min 0
field max 0
field sum 0
field sqrsum 0
attr source packetErrorRate
attr title "Packet error rate, histogram"
bin	-inf	0
bin	-0.5	0
bin	-0.46666666666667	0
bin	-0.43333333333333	0
bin	-0.4	0
bin	-0.36666666666667	0
bin	-0.33333333333333	0
bin	-0.3	0
bin	-0.26666666666667	0
bin	-0.23333333333333	0
bin	-0.2	0
bin	-0.16666666666667	0
bin	-0.13333333333333	0
bin	-0.1	0
bin	-0.066666666666667	0
bin	-0.033333333333333	0
bin	0	2469
bin	0.033333333333333	0
bin	0.066666666666667	0
bin	0.1	0
bin	0.13333333333333	0
bin	0.16666666666667	0
bin	0.2	0
bin	0.23333333333333	0
bin	0.26666666666667	0
bin	0.3	0
bin	0.33333333333333	0
bin	0.36666666666667	0
bin	0.4	0
bin	0.43333333333333	0
bin	0.46666666666667	0
bin	0.5	0
statistic Throughput.sourceHost.wlan[0].radio minSNIR:histogram
field count 2469
field mean 195657755.21039
field stddev 20.4506759269
field min 195657755.21039
field max 195657755.21039
field sum 483078997614.45
field sqrsum 9.4518152262528e+19
attr source minSNIR
attr title "Min SNIR, histogram"
bin	-inf	0
bin	195657754.71039	0
bin	195657754.74372	0
bin	195657754.77705	0
bin	195657754.81039	0
bin	195657754.84372	0
bin	195657754.87705	0
bin	195657754.91039	0
bin	195657754.94372	0
bin	195657754.97705	0
bin	195657755.01039	0
bin	195657755.04372	0
bin	195657755.07705	0
bin	195657755.11039	0
bin	195657755.14372	0
bin	195657755.17705	0
bin	195657755.21039	2469
bin	195657755.24372	0
bin	195657755.27705	0
bin	195657755.31039	0
bin	195657755.34372	0
bin	195657755.37705	0
bin	195657755.41039	0
bin	195657755.44372	0
bin	195657755.47705	0
bin	195657755.51039	0
bin	195657755.54372	0
bin	195657755.57705	0
bin	195657755.61039	0
bin	195657755.64372	0
bin	195657755.67705	0
bin	195657755.71039	0
scalar Throughput.sourceHost.ipv4.ip packetDropAddressResolutionFailed:count 0
attr interpolationmode none
attr source packetDropReasonIsAddressResolutionFailed(packetDrop)
attr title "packet drop: address resolution failed, count"
scalar Throughput.sourceHost.ipv4.ip packetDropAddressResolutionFailed:sum(packetBytes) 0
attr interpolationmode none
attr source packetDropReasonIsAddressResolutionFailed(packetDrop)
attr title "packet drop: address resolution failed, sum(packetBytes)"
scalar Throughput.sourceHost.ipv4.ip packetDropHopLimitReached:count 0
attr interpolationmode none
attr source packetDropReasonIsHopLimitReached(packetDrop)
attr title "packet drop: hop limit reached, count"
scalar Throughput.sourceHost.ipv4.ip packetDropHopLimitReached:sum(packetBytes) 0
attr interpolationmode none
attr source packetDropReasonIsHopLimitReached(packetDrop)
attr title "packet drop: hop limit reached, sum(packetBytes)"
scalar Throughput.sourceHost.ipv4.ip packetDropForwardingDisabled:count 0
attr interpolationmode none
attr source packetDropReasonIsForwardingDisabled(packetDrop)
attr title "packet drop: forwarding disabled, count"
scalar Throughput.sourceHost.ipv4.ip packetDropForwardingDisabled:sum(packetBytes) 0
attr interpolationmode none
attr source packetDropReasonIsForwardingDisabled(packetDrop)
attr title "packet drop: forwarding disabled, sum(packetBytes)"
scalar Throughput.sourceHost.ipv4.ip packetDropNoInterfaceFound:count 0
attr interpolationmode none
attr source packetDropReasonIsNoInterfaceFound(packetDrop)
attr title "packet drop: no interface found, count"
scalar Throughput.sourceHost.ipv4.ip packetDropNoInterfaceFound:sum(packetBytes) 0
attr interpolationmode none
attr source packetDropReasonIsNoInterfaceFound(packetDrop)
attr title "packet drop: no interface found, sum(packetBytes)"
scalar Throughput.sourceHost.ipv4.ip packetDropNoRouteFound:count 0
attr interpolationmode none
attr source packetDropReasonIsNoRouteFound(packetDrop)
attr title "packet drop: no route found, count"
scalar Throughput.sourceHost.ipv4.ip packetDropNoRouteFound:sum(packetBytes) 0
attr interpolationmode none
attr source packetDropReasonIsNoRouteFound(packetDrop)
attr title "packet drop: no route found, sum(packetBytes)"
scalar Throughput.sourceHost.ipv4.ip packetDropUndefined:count 0
attr interpolationmode none
attr source packetDropReasonIsUndefined(packetDrop)
attr title "packet drop: undefined, count"
scalar Throughput.sourceHost.ipv4.ip packetDropUndefined:sum(packetBytes) 0
attr interpolationmode none
attr source packetDropReasonIsUndefined(packetDrop)
attr title "packet drop: undefined, sum(packetBytes)"
scalar Throughput.sourceHost.udp droppedPkBadChecksum:count 0
attr interpolationmode none
attr title "packets dropped (checksum error), count"
scalar Throughput.sourceHost.udp droppedPkWrongPort:count 0
attr interpolationmode none
attr title "packets dropped (wrong port), count"
scalar Throughput.sourceHost.udp passedUpPk:count 0
attr interpolationmode none
attr title "packets passed up, count"
scalar Throughput.sourceHost.udp rcvdPk:count 0
attr interpolationmode none
attr source rcvdPk
attr title "packets received, count"
scalar Throughput.sourceHost.udp rcvdPk:sum(packetBytes) 0
attr interpolationmode none
attr source rcvdPk
attr title "packets received, sum(packetBytes)"
scalar Throughput.sourceHost.udp sentPk:count 7501
attr interpolationmode none
attr source sentPk
attr title "packets sent, count"
scalar Throughput.sourceHost.udp sentPk:sum(packetBytes) 810108
attr interpolationmode none
attr source sentPk
attr title "packets sent, sum(packetBytes)"
scalar Throughput.sourceHost.app[0] "packets sent" 7501
scalar Throughput.sourceHost.app[0] "packets received" 0
scalar Throughput.sourceHost.app[0] rcvdPk:count 0
attr interpolationmode none
attr source rcvdPk
attr title "packets received, count"
scalar Throughput.sourceHost.app[0] rcvdPk:sum(packetBytes) 0
attr interpolationmode none
attr source rcvdPk
attr title "packets received, sum(packetBytes)"
scalar Throughput.sourceHost.app[0] throughput:mean -nan
attr source throughput(rcvdPk)
attr title "throughput, mean"
attr unit bps
statistic Throughput.sourceHost.app[0] rcvdPkLifetime:stats
field count 0
field mean -nan
field stddev -nan
field min -nan
field max -nan
field sum 0
field sqrsum 0
attr interpolationmode none
attr source messageAge(rcvdPk)
attr title "received packet lifetime, stats"
attr unit s
scalar Throughput.sourceHost.app[0] sentPk:count 7501
attr interpolationmode none
attr source sentPk
attr title "packets sent, count"
scalar Throughput.sourceHost.app[0] sentPk:sum(packetBytes) 750100
attr interpolationmode none
attr source sentPk
attr title "packets sent, sum(packetBytes)"
scalar Throughput.destinationHost.lo[0].lo rcvdPkFromHL:count 0
attr interpolationmode none
attr source packetReceivedFromUpper
attr title "packets received from higher layer, count"
scalar Throughput.destinationHost.lo[0].lo rcvdPkFromHL:sum(packetBytes) 0
attr interpolationmode none
attr source packetReceivedFromUpper
attr title "packets received from higher layer, sum(packetBytes)"
scalar Throughput.destinationHost.lo[0].lo passedUpPk:count 0
attr interpolationmode none
attr source packetSentToUpper
attr title "packets passed to higher layer, count"
scalar Throughput.destinationHost.lo[0].lo passedUpPk:sum(packetBytes) 0
attr interpolationmode none
attr source packetSentToUpper
attr title "packets passed to higher layer, sum(packetBytes)"
scalar Throughput.destinationHost.wlan[0].mac packetDropIncorrectlyReceived:count 0
attr interpolationmode none
attr source packetDropReasonIsIncorrectlyReceived(packetDrop)
attr title "packet drop: incorrectly received, count"
scalar Throughput.destinationHost.wlan[0].mac packetDropIncorrectlyReceived:sum(packetBytes) 0
attr interpolationmode none
attr source packetDropReasonIsIncorrectlyReceived(packetDrop)
attr title "packet drop: incorrectly received, sum(packetBytes)"
scalar Throughput.destinationHost.wlan[0].mac packetDropNotAddressedToUs:count 0
attr interpolationmode none
attr source packetDropReasonIsNotAddressedToUs(packetDrop)
attr title "packet drop: not addressed to us, count"
scalar Throughput.destinationHost.wlan[0].mac packetDropNotAddressedToUs:sum(packetBytes) 0
attr interpolationmode none
attr source packetDropReasonIsNotAddressedToUs(packetDrop)
attr title "packet drop: not addressed to us, sum(packetBytes)"
scalar Throughput.destinationHost.wlan[0].mac packetDropQueueOverflow:count 0
attr interpolationmode none
attr source packetDropReasonIsQueueOverflow(packetDrop)
attr title "packet drop: queue overflow, count"
scalar Throughput.destinationHost.wlan[0].mac packetDropQueueOverflow:sum(packetBytes) 0
attr interpolationmode none
attr source packetDropReasonIsQueueOverflow(packetDrop)
attr title "packet drop: queue overflow, sum(packetBytes)"
scalar Throughput.destinationHost.wlan[0].mac packetDropRetryLimitReached:count 0
attr interpolationmode none
attr source packetDropReasonIsRetryLimitReached(packetDrop)
attr title "packet drop: retry limit reached, count"
scalar Throughput.destinationHost.wlan[0].mac packetDropRetryLimitReached:sum(packetBytes) 0
attr interpolationmode none
attr source packetDropReasonIsRetryLimitReached(packetDrop)
attr title "packet drop: retry limit reached, sum(packetBytes)"
scalar Throughput.destinationHost.wlan[0].mac linkBreak:count 0
attr interpolationmode none
attr source linkBreak
attr title "link break, count"
scalar Throughput.destinationHost.wlan[0].mac rcvdPkFromLL:count 2469
attr interpolationmode none
attr source packetReceivedFromLower
attr title "packets received from lower layer, count"
scalar Throughput.destinationHost.wlan[0].mac rcvdPkFromLL:sum(packetBytes) 404916
attr interpolationmode none
attr source packetReceivedFromLower
attr title "packets received from lower layer, sum(packetBytes)"
scalar Throughput.destinationHost.wlan[0].mac sentDownPk:count 2469
attr interpolationmode none
attr source packetSentToLower
attr title "packets sent to lower layer, count"
scalar Throughput.destinationHost.wlan[0].mac sentDownPk:sum(packetBytes) 34566
attr interpolationmode none
attr source packetSentToLower
attr title "packets sent to lower layer, sum(packetBytes)"
scalar Throughput.destinationHost.wlan[0].mac rcvdPkFromHL:count 0
attr interpolationmode none
attr source packetReceivedFromUpper
attr title "packets received from higher layer, count"
scalar Throughput.destinationHost.wlan[0].mac rcvdPkFromHL:sum(packetBytes) 0
attr interpolationmode none
attr source packetReceivedFromUpper
attr title "packets received from higher layer, sum(packetBytes)"
scalar Throughput.destinationHost.wlan[0].mac passedUpPk:count 2469
attr interpolationmode none
attr source packetSentToUpper
attr title "packets passed to higher layer, count"
scalar Throughput.destinationHost.wlan[0].mac passedUpPk:sum(packetBytes) 335784
attr interpolationmode none
attr source packetSentToUpper
attr title "packets passed to higher layer, sum(packetBytes)"
statistic Throughput.destinationHost.wlan[0].radio radioChannel:histogram
field count 1
field mean 0
field stddev -nan
field min 0
field max 0
field sum 0
field sqrsum 0
attr interpolationmode sample-hold
attr source radioChannelChanged
attr title "Radio channel, histogram"
bin	-inf	0
bin	-0.5	0
bin	-0.46666666666667	0
bin	-0.43333333333333	0
bin	-0.4	0
bin	-0.36666666666667	0
bin	-0.33333333333333	0
bin	-0.3	0
bin	-0.26666666666667	0
bin	-0.23333333333333	0
bin	-0.2	0
bin	-0.16666666666667	0
bin	-0.13333333333333	0
bin	-0.1	0
bin	-0.066666666666667	0
bin	-0.033333333333333	0
bin	0	1
bin	0.033333333333333	0
bin	0.066666666666667	0
bin	0.1	0
bin	0.13333333333333	0
bin	0.16666666666667	0
bin	0.2	0
bin	0.23333333333333	0
bin	0.26666666666667	0
bin	0.3	0
bin	0.33333333333333	0
bin	0.36666666666667	0
bin	0.4	0
bin	0.43333333333333	0
bin	0.46666666666667	0
bin	0.5	0
scalar Throughput.destinationHost.wlan[0].radio transmissionState:count 9876
attr interpolationmode sample-hold
attr source transmissionStateChanged
attr title "Radio transmission state, count"
scalar Throughput.destinationHost.wlan[0].radio receptionState:count 9878
attr interpolationmode sample-hold
attr source receptionStateChanged
attr title "Radio reception state, count"
scalar Throughput.destinationHost.wlan[0].radio radioMode:count 4940
attr interpolationmode sample-hold
attr source radioModeChanged
attr title "Radio mode, count"
statistic Throughput.destinationHost.wlan[0].radio symbolErrorRate:histogram
field count 0
field mean -nan
field stddev -nan
field min -nan
field max -nan
field sum 0
field sqrsum 0
attr source symbolErrorRate
attr title "Symbol error rate, histogram"
bin	-inf	0
bin	-0.5	0
bin	-0.46666666666667	0
bin	-0.43333333333333	0
bin	-0.4	0
bin	-0.36666666666667	0
bin	-0.33333333333333	0
bin	-0.3	0
bin	-0.26666666666667	0
bin	-0.23333333333333	0
bin	-0.2	0
bin	-0.16666666666667	0
bin	-0.13333333333333	0
bin	-0.1	0
bin	-0.066666666666667	0
bin	-0.033333333333333	0
bin	0	0
bin	0.033333333333333	0
bin	0.066666666666667	0
bin	0.1	0
bin	0.13333333333333	0
bin	0.16666666666667	0
bin	0.2	0
bin	0.23333333333333	0
bin	0.26666666666667	0
bin	0.3	0
bin	0.33333333333333	0
bin	0.36666666666667	0
bin	0.4	0
bin	0.43333333333333	0
bin	0.46666666666667	0
bin	0.5	0
statistic Throughput.destinationHost.wlan[0].radio bitErrorRate:histogram
field count 0
field mean -nan
field stddev -nan
field min -nan
field max -nan
field sum 0
field sqrsum 0
attr source bitErrorRate
attr title "Bit error rate, histogram"
bin	-inf	0
bin	-0.5	0
bin	-0.46666666666667	0
bin	-0.43333333333333	0
bin	-0.4	0
bin	-0.36666666666667	0
bin	-0.33333333333333	0
bin	-0.3	0
bin	-0.26666666666667	0
bin	-0.23333333333333	0
bin	-0.2	0
bin	-0.16666666666667	0
bin	-0.13333333333333	0
bin	-0.1	0
bin	-0.066666666666667	0
bin	-0.033333333333333	0
bin	0	0
bin	0.033333333333333	0
bin	0.066666666666667	0
bin	0.1	0
bin	0.13333333333333	0
bin	0.16666666666667	0
bin	0.2	0
bin	0.23333333333333	0
bin	0.26666666666667	0
bin	0.3	0
bin	0.33333333333333	0
bin	0.36666666666667	0
bin	0.4	0
bin	0.43333333333333	0
bin	0.46666666666667	0
bin	0.5	0
statistic Throughput.destinationHost.wlan[0].radio packetErrorRate:histogram
field count 2469
field mean 0
field stddev 0
field min 0
field max 0
field sum 0
field sqrsum 0
attr source packetErrorRate
attr title "Packet error rate, histogram"
bin	-inf	0
bin	-0.5	0
bin	-0.46666666666667	0
bin	-0.43333333333333	0
bin	-0.4	0
bin	-0.36666666666667	0
bin	-0.33333333333333	0
bin	-0.3	0
bin	-0.26666666666667	0
bin	-0.23333333333333	0
bin	-0.2	0
bin	-0.16666666666667	0
bin	-0.13333333333333	0
bin	-0.1	0
bin	-0.066666666666667	0
bin	-0.033333333333333	0
bin	0	2469
bin	0.033333333333333	0
bin	0.066666666666667	0
bin	0.1	0
bin	0.13333333333333	0
bin	0.16666666666667	0
bin	0.2	0
bin	0.23333333333333	0
bin	0.26666666666667	0
bin	0.3	0
bin	0.33333333333333	0
bin	0.36666666666667	0
bin	0.4	0
bin	0.43333333333333	0
bin	0.46666666666667	0
bin	0.5	0
statistic Throughput.destinationHost.wlan[0].radio minSNIR:histogram
field count 2469
field mean 195657755.21039
field stddev 20.4506759269
field min 195657755.21039
field max 195657755.21039
field sum 483078997614.45
field sqrsum 9.4518152262528e+19
attr source minSNIR
attr title "Min SNIR, histogram"
bin	-inf	0
bin	195657754.71039	0
bin	195657754.74372	0
bin	195657754.77705	0
bin	195657754.81039	0
bin	195657754.84372	0
bin	195657754.87705	0
bin	195657754.91039	0
bin	195657754.94372	0
bin	195657754.97705	0
bin	195657755.01039	0
bin	195657755.04372	0
bin	195657755.07705	0
bin	195657755.11039	0
bin	195657755.14372	0
bin	195657755.17705	0
bin	195657755.21039	2469
bin	195657755.24372	0
bin	195657755.27705	0
bin	195657755.31039	0
bin	195657755.34372	0
bin	195657755.37705	0
bin	195657755.41039	0
bin	195657755.44372	0
bin	195657755.47705	0
bin	195657755.51039	0
bin	195657755.54372	0
bin	195657755.57705	0
bin	195657755.61039	0
bin	195657755.64372	0
bin	195657755.67705	0
bin	195657755.71039	0
scalar Throughput.destinationHost.ipv4.ip packetDropAddressResolutionFailed:count 0
attr interpolationmode none
attr source packetDropReasonIsAddressResolutionFailed(packetDrop)
attr title "packet drop: address resolution failed, count"
scalar Throughput.destinationHost.ipv4.ip packetDropAddressResolutionFailed:sum(packetBytes) 0
attr interpolationmode none
attr source packetDropReasonIsAddressResolutionFailed(packetDrop)
attr title "packet drop: address resolution failed, sum(packetBytes)"
scalar Throughput.destinationHost.ipv4.ip packetDropHopLimitReached:count 0
attr interpolationmode none
attr source packetDropReasonIsHopLimitReached(packetDrop)
attr title "packet drop: hop limit reached, count"
scalar Throughput.destinationHost.ipv4.ip packetDropHopLimitReached:sum(packetBytes) 0
attr interpolationmode none
attr source packetDropReasonIsHopLimitReached(packetDrop)
attr title "packet drop: hop limit reached, sum(packetBytes)"
scalar Throughput.destinationHost.ipv4.ip packetDropForwardingDisabled:count 0
attr interpolationmode none
attr source packetDropReasonIsForwardingDisabled(packetDrop)
attr title "packet drop: forwarding disabled, count"
scalar Throughput.destinationHost.ipv4.ip packetDropForwardingDisabled:sum(packetBytes) 0
attr interpolationmode none
attr source packetDropReasonIsForwardingDisabled(packetDrop)
attr title "packet drop: forwarding disabled, sum(packetBytes)"
scalar Throughput.destinationHost.ipv4.ip packetDropNoInterfaceFound:count 0
attr interpolationmode none
attr source packetDropReasonIsNoInterfaceFound(packetDrop)
attr title "packet drop: no interface found, count"
scalar Throughput.destinationHost.ipv4.ip packetDropNoInterfaceFound:sum(packetBytes) 0
attr interpolationmode none
attr source packetDropReasonIsNoInterfaceFound(packetDrop)
attr title "packet drop: no interface found, sum(packetBytes)"
scalar Throughput.destinationHost.ipv4.ip packetDropNoRouteFound:count 0
attr interpolationmode none
attr source packetDropReasonIsNoRouteFound(packetDrop)
attr title "packet drop: no route found, count"
scalar Throughput.destinationHost.ipv4.ip packetDropNoRouteFound:sum(packetBytes) 0
attr interpolationmode none
attr source packetDropReasonIsNoRouteFound(packetDrop)
attr title "packet drop: no route found, sum(packetBytes)"
scalar Throughput.destinationHost.ipv4.ip packetDropUndefined:count 0
attr interpolationmode none
attr source packetDropReasonIsUndefined(packetDrop)
attr title "packet drop: undefined, count"
scalar Throughput.destinationHost.ipv4.ip packetDropUndefined:sum(packetBytes) 0
attr interpolationmode none
attr source packetDropReasonIsUndefined(packetDrop)
attr title "packet drop: undefined, sum(packetBytes)"
scalar Throughput.destinationHost.udp droppedPkBadChecksum:count 0
attr interpolationmode none
attr title "packets dropped (checksum error), count"
scalar Throughput.destinationHost.udp droppedPkWrongPort:count 0
attr interpolationmode none
attr title "packets dropped (wrong port), count"
scalar Throughput.destinationHost.udp passedUpPk:count 2469
attr interpolationmode none
attr title "packets passed up, count"
scalar Throughput.destinationHost.udp rcvdPk:count 2469
attr interpolationmode none
attr source rcvdPk
attr title "packets received, count"
scalar Throughput.destinationHost.udp rcvdPk:sum(packetBytes) 266652
attr interpolationmode none
attr source rcvdPk
attr title "packets received, sum(packetBytes)"
scalar Throughput.destinationHost.udp sentPk:count 0
attr interpolationmode none
attr source sentPk
attr title "packets sent, count"
scalar Throughput.destinationHost.udp sentPk:sum(packetBytes) 0
attr interpolationmode none
attr source sentPk
attr title "packets sent, sum(packetBytes)"
scalar Throughput.destinationHost.app[0] rcvdPk:count 2469
attr interpolationmode none
attr source rcvdPk
attr title "packets received, count"
scalar Throughput.destinationHost.app[0] rcvdPk:sum(packetBytes) 246900
attr interpolationmode none
attr source rcvdPk
attr title "packets received, sum(packetBytes)"
scalar Throughput.destinationHost.app[0] throughput:mean 1976381.8887643
attr source throughput(rcvdPk)
attr title "throughput, mean"
attr unit bps
statistic Throughput.destinationHost.app[0] endToEndDelay:histogram
field count 2469
field mean 0.006228646887051
field stddev 0.00038021745956465
field min 0.000341003336
field max 0.006755937839
field sum 15.378529164129
field sqrsum 0.096144215006841
attr interpolationmode none
attr source messageAge(rcvdPk)
attr title "end-to-end delay, histogram"
attr unit s
bin	-inf	0
bin	-0.002812266913	0
bin	-0.0023918308798	0
bin	-0.0019713948466	0
bin	-0.0015509588134	0
bin	-0.0011305227802	0
bin	-0.000710086747	0
bin	-0.0002896507138	0
bin	0.0001307853194	1
bin	0.0005512213526	2
bin	0.0009716573858	2
bin	0.001392093419	1
bin	0.0018125294522	2
bin	0.0022329654854	1
bin	0.0026534015186	2
bin	0.0030738375518	2
bin	0.003494273585	1
bin	0.0039147096182	2
bin	0.0043351456514	2
bin	0.0047555816846	1
bin	0.0051760177178	1
bin	0.005596453751	206
bin	0.0060168897842	1870
bin	0.0064373258174	373
bin	0.0068577618506	0
bin	0.0072781978838	0
bin	0.007698633917	0
bin	0.0081190699502	0
bin	0.0085395059834	0
bin	0.0089599420166	0
bin	0.0093803780498	0
bin	0.009800814083	0
scalar Throughput.radioMedium.propagation "Arrival computation count" 4939
scalar Throughput.radioMedium "transmission count" 4939
scalar Throughput.radioMedium "signal send count" 4939
scalar Throughput.radioMedium "reception computation count" 4939
scalar Throughput.radioMedium "interference computation count" 39512
scalar Throughput.radioMedium "reception decision computation count" 9876
scalar Throughput.radioMedium "listening decision computation count" 9878
scalar Throughput.radioMedium "reception cache hit" 93.749762721302
attr unit %
scalar Throughput.radioMedium "interference cache hit" 74.996203108389
attr unit %
scalar Throughput.radioMedium "noise cache hit" 0
attr unit %
scalar Throughput.radioMedium "snir cache hit" 79.997570063178
attr unit %
scalar Throughput.radioMedium "reception decision cache hit" 0
attr unit %
scalar Throughput.radioMedium "reception result cache hit" 0
attr unit %

version 2
run General-2-20171027-11:40:36-11660
attr configname General
attr datetime 20171027-11:40:36
attr experiment General
attr inifile omnetpp.ini
attr iterationvars "$bitrate=9, $packetLength=100"
attr iterationvarsf bitrate=9,packetLength=100-
attr measurement "$bitrate=9, $packetLength=100"
attr network Throughput
attr processid 11660
attr repetition 0
attr replication #0
attr resultdir results
attr runnumber 2
attr seedset 2
itervar bitrate 9
itervar packetLength 100
param *.*Host.ipv4.arpType "\"GlobalARP\""
param *.*Host.wlan[*].mgmtType "\"Ieee80211MgmtAdhoc\""
param *.*Host.wlan[*].opMode "\"g(erp)\""
param *.*Host.wlan[*].bitrate 9Mbps
param *.*Host.wlan[*].radio.separateReceptionParts true
param *.*Host.wlan[*].radio.separateTransmissionParts true
param *.sourceHost.numApps 1
param *.sourceHost.app[0].typename "\"UDPBasicApp\""
param *.sourceHost.app[*].destAddresses "\"destinationHost\""
param *.sourceHost.app[*].destPort 5000
param *.sourceHost.app[*].messageLength 100byte
param *.sourceHost.app[*].packetName "\"UDPData-\""
param *.sourceHost.app[*].startTime 0s
param *.sourceHost.app[*].sendInterval "100 * 8 / 9 * 1us"
param *.destinationHost.numApps 1
param *.destinationHost.app[0].typename "\"UDPSink\""
param *.destinationHost.app[*].localPort 5000

scalar Throughput.sourceHost.lo[0].lo rcvdPkFromHL:count 0
attr interpolationmode none
attr source packetReceivedFromUpper
attr title "packets received from higher layer, count"
scalar Throughput.sourceHost.lo[0].lo rcvdPkFromHL:sum(packetBytes) 0
attr interpolationmode none
attr source packetReceivedFromUpper
attr title "packets received from higher layer, sum(packetBytes)"
scalar Throughput.sourceHost.lo[0].lo passedUpPk:count 0
attr interpolationmode none
attr source packetSentToUpper
attr title "packets passed to higher layer, count"
scalar Throughput.sourceHost.lo[0].lo passedUpPk:sum(packetBytes) 0
attr interpolationmode none
attr source packetSentToUpper
attr title "packets passed to higher layer, sum(packetBytes)"
scalar Throughput.sourceHost.wlan[0].mac packetDropIncorrectlyReceived:count 0
attr interpolationmode none
attr source packetDropReasonIsIncorrectlyReceived(packetDrop)
attr title "packet drop: incorrectly received, count"
scalar Throughput.sourceHost.wlan[0].mac packetDropIncorrectlyReceived:sum(packetBytes) 0
attr interpolationmode none
attr source packetDropReasonIsIncorrectlyReceived(packetDrop)
attr title "packet drop: incorrectly received, sum(packetBytes)"
scalar Throughput.sourceHost.wlan[0].mac packetDropNotAddressedToUs:count 0
attr interpolationmode none
attr source packetDropReasonIsNotAddressedToUs(packetDrop)
attr title "packet drop: not addressed to us, count"
scalar Throughput.sourceHost.wlan[0].mac packetDropNotAddressedToUs:sum(packetBytes) 0
attr interpolationmode none
attr source packetDropReasonIsNotAddressedToUs(packetDrop)
attr title "packet drop: not addressed to us, sum(packetBytes)"
scalar Throughput.sourceHost.wlan[0].mac packetDropQueueOverflow:count 8233
attr interpolationmode none
attr source packetDropReasonIsQueueOverflow(packetDrop)
attr title "packet drop: queue overflow, count"
scalar Throughput.sourceHost.wlan[0].mac packetDropQueueOverflow:sum(packetBytes) 1350212
attr interpolationmode none
attr source packetDropReasonIsQueueOverflow(packetDrop)
attr title "packet drop: queue overflow, sum(packetBytes)"
scalar Throughput.sourceHost.wlan[0].mac packetDropRetryLimitReached:count 0
attr interpolationmode none
attr source packetDropReasonIsRetryLimitReached(packetDrop)
attr title "packet drop: retry limit reached, count"
scalar Throughput.sourceHost.wlan[0].mac packetDropRetryLimitReached:sum(packetBytes) 0
attr interpolationmode none
attr source packetDropReasonIsRetryLimitReached(packetDrop)
attr title "packet drop: retry limit reached, sum(packetBytes)"
scalar Throughput.sourceHost.wlan[0].mac linkBreak:count 0
attr interpolationmode none
attr source linkBreak
attr title "link break, count"
scalar Throughput.sourceHost.wlan[0].mac rcvdPkFromLL:count 3002
attr interpolationmode none
attr source packetReceivedFromLower
attr title "packets received from lower layer, count"
scalar Throughput.sourceHost.wlan[0].mac rcvdPkFromLL:sum(packetBytes) 42028
attr interpolationmode none
attr source packetReceivedFromLower
attr title "packets received from lower layer, sum(packetBytes)"
scalar Throughput.sourceHost.wlan[0].mac sentDownPk:count 3002
attr interpolationmode none
attr source packetSentToLower
attr title "packets sent to lower layer, count"
scalar Throughput.sourceHost.wlan[0].mac sentDownPk:sum(packetBytes) 492328
attr interpolationmode none
attr source packetSentToLower
attr title "packets sent to lower layer, sum(packetBytes)"
scalar Throughput.sourceHost.wlan[0].mac rcvdPkFromHL:count 11250
attr interpolationmode none
attr source packetReceivedFromUpper
attr title "packets received from higher layer, count"
scalar Throughput.sourceHost.wlan[0].mac rcvdPkFromHL:sum(packetBytes) 1530000
attr interpolationmode none
attr source packetReceivedFromUpper
attr title "packets received from higher layer, sum(packetBytes)"
scalar Throughput.sourceHost.wlan[0].mac passedUpPk:count 0
attr interpolationmode none
attr source packetSentToUpper
attr title "packets passed to higher layer, count"
scalar Throughput.sourceHost.wlan[0].mac passedUpPk:sum(packetBytes) 0
attr interpolationmode none
attr source packetSentToUpper
attr title "packets passed to higher layer, sum(packetBytes)"
statistic Throughput.sourceHost.wlan[0].radio radioChannel:histogram
field count 1
field mean 0
field stddev -nan
field min 0
field max 0
field sum 0
field sqrsum 0
attr interpolationmode sample-hold
attr source radioChannelChanged
attr title "Radio channel, histogram"
bin	-inf	0
bin	-0.5	0
bin	-0.46666666666667	0
bin	-0.43333333333333	0
bin	-0.4	0
bin	-0.36666666666667	0
bin	-0.33333333333333	0
bin	-0.3	0
bin	-0.26666666666667	0
bin	-0.23333333333333	0
bin	-0.2	0
bin	-0.16666666666667	0
bin	-0.13333333333333	0
bin	-0.1	0
bin	-0.066666666666667	0
bin	-0.033333333333333	0
bin	0	1
bin	0.033333333333333	0
bin	0.066666666666667	0
bin	0.1	0
bin	0.13333333333333	0
bin	0.16666666666667	0
bin	0.2	0
bin	0.23333333333333	0
bin	0.26666666666667	0
bin	0.3	0
bin	0.33333333333333	0
bin	0.36666666666667	0
bin	0.4	0
bin	0.43333333333333	0
bin	0.46666666666667	0
bin	0.5	0
scalar Throughput.sourceHost.wlan[0].radio transmissionState:count 12008
attr interpolationmode sample-hold
attr source transmissionStateChanged
attr title "Radio transmission state, count"
scalar Throughput.sourceHost.wlan[0].radio receptionState:count 12009
attr interpolationmode sample-hold
attr source receptionStateChanged
attr title "Radio reception state, count"
scalar Throughput.sourceHost.wlan[0].radio radioMode:count 6006
attr interpolationmode sample-hold
attr source radioModeChanged
attr title "Radio mode, count"
statistic Throughput.sourceHost.wlan[0].radio symbolErrorRate:histogram
field count 0
field mean -nan
field stddev -nan
field min -nan
field max -nan
field sum 0
field sqrsum 0
attr source symbolErrorRate
attr title "Symbol error rate, histogram"
bin	-inf	0
bin	-0.5	0
bin	-0.46666666666667	0
bin	-0.43333333333333	0
bin	-0.4	0
bin	-0.36666666666667	0
bin	-0.33333333333333	0
bin	-0.3	0
bin	-0.26666666666667	0
bin	-0.23333333333333	0
bin	-0.2	0
bin	-0.16666666666667	0
bin	-0.13333333333333	0
bin	-0.1	0
bin	-0.066666666666667	0
bin	-0.033333333333333	0
bin	0	0
bin	0.033333333333333	0
bin	0.066666666666667	0
bin	0.1	0
bin	0.13333333333333	0
bin	0.16666666666667	0
bin	0.2	0
bin	0.23333333333333	0
bin	0.26666666666667	0
bin	0.3	0
bin	0.33333333333333	0
bin	0.36666666666667	0
bin	0.4	0
bin	0.43333333333333	0
bin	0.46666666666667	0
bin	0.5	0
statistic Throughput.sourceHost.wlan[0].radio bitErrorRate:histogram
field count 0
field mean -nan
field stddev -nan
field min -nan
field max -nan
field sum 0
field sqrsum 0
attr source bitErrorRate
attr title "Bit error rate, histogram"
bin	-inf	0
bin	-0.5	0
bin	-0.46666666666667	0
bin	-0.43333333333333	0
bin	-0.4	0
bin	-0.36666666666667	0
bin	-0.33333333333333	0
bin	-0.3	0
bin	-0.26666666666667	0
bin	-0.23333333333333	0
bin	-0.2	0
bin	-0.16666666666667	0
bin	-0.13333333333333	0
bin	-0.1	0
bin	-0.066666666666667	0
bin	-0.033333333333333	0
bin	0	0
bin	0.033333333333333	0
bin	0.066666666666667	0
bin	0.1	0
bin	0.13333333333333	0
bin	0.16666666666667	0
bin	0.2	0
bin	0.23333333333333	0
bin	0.26666666666667	0
bin	0.3	0
bin	0.33333333333333	0
bin	0.36666666666667	0
bin	0.4	0
bin	0.43333333333333	0
bin	0.46666666666667	0
bin	0.5	0
statistic Throughput.sourceHost.wlan[0].radio packetErrorRate:histogram
field count 3002
field mean 0
field stddev 0
field min 0
field max 0
field sum 0
field sqrsum 0
attr source packetErrorRate
attr title "Packet error rate, histogram"
bin	-inf	0
bin	-0.5	0
bin	-0.46666666666667	0
bin	-0.43333333333333	0
bin	-0.4	0
bin	-0.36666666666667	0
bin	-0.33333333333333	0
bin	-0.3	0
bin	-0.26666666666667	0
bin	-0.23333333333333	0
bin	-0.2	0
bin	-0.16666666666667	0
bin	-0.13333333333333	0
bin	-0.1	0
bin	-0.066666666666667	0
bin	-0.033333333333333	0
bin	0	3002
bin	0.033333333333333	0
bin	0.066666666666667	0
bin	0.1	0
bin	0.13333333333333	0
bin	0.16666666666667	0
bin	0.2	0
bin	0.23333333333333	0
bin	0.26666666666667	0
bin	0.3	0
bin	0.33333333333333	0
bin	0.36666666666667	0
bin	0.4	0
bin	0.43333333333333	0
bin	0.46666666666667	0
bin	0.5	0
statistic Throughput.sourceHost.wlan[0].radio minSNIR:histogram
field count 3002
field mean 195657755.21038
field stddev 44.762053715721
field min 195657755.21039
field max 195657755.21039
field sum 587364581141.57
field sqrsum 1.1492243543625e+20
attr source minSNIR
attr title "Min SNIR, histogram"
bin	-inf	0
bin	195657754.71039	0
bin	195657754.74372	0
bin	195657754.77705	0
bin	195657754.81039	0
bin	195657754.84372	0
bin	195657754.87705	0
bin	195657754.91039	0
bin	195657754.94372	0
bin	195657754.97705	0
bin	195657755.01039	0
bin	195657755.04372	0
bin	195657755.07705	0
bin	195657755.11039	0
bin	195657755.14372	0
bin	195657755.17705	0
bin	195657755.21039	3002
bin	195657755.24372	0
bin	195657755.27705	0
bin	195657755.31039	0
bin	195657755.34372	0
bin	195657755.37705	0
bin	195657755.41039	0
bin	195657755.44372	0
bin	195657755.47705	0
bin	195657755.51039	0
bin	195657755.54372	0
bin	195657755.57705	0
bin	195657755.61039	0
bin	195657755.64372	0
bin	195657755.67705	0
bin	195657755.71039	0
scalar Throughput.sourceHost.ipv4.ip packetDropAddressResolutionFailed:count 0
attr interpolationmode none
attr source packetDropReasonIsAddressResolutionFailed(packetDrop)
attr title "packet drop: address resolution failed, count"
scalar Throughput.sourceHost.ipv4.ip packetDropAddressResolutionFailed:sum(packetBytes) 0
attr interpolationmode none
attr source packetDropReasonIsAddressResolutionFailed(packetDrop)
attr title "packet drop: address resolution failed, sum(packetBytes)"
scalar Throughput.sourceHost.ipv4.ip packetDropHopLimitReached:count 0
attr interpolationmode none
attr source packetDropReasonIsHopLimitReached(packetDrop)
attr title "packet drop: hop limit reached, count"
scalar Throughput.sourceHost.ipv4.ip packetDropHopLimitReached:sum(packetBytes) 0
attr interpolationmode none
attr source packetDropReasonIsHopLimitReached(packetDrop)
attr title "packet drop: hop limit reached, sum(packetBytes)"
scalar Throughput.sourceHost.ipv4.ip packetDropForwardingDisabled:count 0
attr interpolationmode none
attr source packetDropReasonIsForwardingDisabled(packetDrop)
attr title "packet drop: forwarding disabled, count"
scalar Throughput.sourceHost.ipv4.ip packetDropForwardingDisabled:sum(packetBytes) 0
attr interpolationmode none
attr source packetDropReasonIsForwardingDisabled(packetDrop)
attr title "packet drop: forwarding disabled, sum(packetBytes)"
scalar Throughput.sourceHost.ipv4.ip packetDropNoInterfaceFound:count 0
attr interpolationmode none
attr source packetDropReasonIsNoInterfaceFound(packetDrop)
attr title "packet drop: no interface found, count"
scalar Throughput.sourceHost.ipv4.ip packetDropNoInterfaceFound:sum(packetBytes) 0
attr interpolationmode none
attr source packetDropReasonIsNoInterfaceFound(packetDrop)
attr title "packet drop: no interface found, sum(packetBytes)"
scalar Throughput.sourceHost.ipv4.ip packetDropNoRouteFound:count 0
attr interpolationmode none
attr source packetDropReasonIsNoRouteFound(packetDrop)
attr title "packet drop: no route found, count"
scalar Throughput.sourceHost.ipv4.ip packetDropNoRouteFound:sum(packetBytes) 0
attr interpolationmode none
attr source packetDropReasonIsNoRouteFound(packetDrop)
attr title "packet drop: no route found, sum(packetBytes)"
scalar Throughput.sourceHost.ipv4.ip packetDropUndefined:count 0
attr interpolationmode none
attr source packetDropReasonIsUndefined(packetDrop)
attr title "packet drop: undefined, count"
scalar Throughput.sourceHost.ipv4.ip packetDropUndefined:sum(packetBytes) 0
attr interpolationmode none
attr source packetDropReasonIsUndefined(packetDrop)
attr title "packet drop: undefined, sum(packetBytes)"
scalar Throughput.sourceHost.udp droppedPkBadChecksum:count 0
attr interpolationmode none
attr title "packets dropped (checksum error), count"
scalar Throughput.sourceHost.udp droppedPkWrongPort:count 0
attr interpolationmode none
attr title "packets dropped (wrong port), count"
scalar Throughput.sourceHost.udp passedUpPk:count 0
attr interpolationmode none
attr title "packets passed up, count"
scalar Throughput.sourceHost.udp rcvdPk:count 0
attr interpolationmode none
attr source rcvdPk
attr title "packets received, count"
scalar Throughput.sourceHost.udp rcvdPk:sum(packetBytes) 0
attr interpolationmode none
attr source rcvdPk
attr title "packets received, sum(packetBytes)"
scalar Throughput.sourceHost.udp sentPk:count 11250
attr interpolationmode none
attr source sentPk
attr title "packets sent, count"
scalar Throughput.sourceHost.udp sentPk:sum(packetBytes) 1215000
attr interpolationmode none
attr source sentPk
attr title "packets sent, sum(packetBytes)"
scalar Throughput.sourceHost.app[0] "packets sent" 11250
scalar Throughput.sourceHost.app[0] "packets received" 0
scalar Throughput.sourceHost.app[0] rcvdPk:count 0
attr interpolationmode none
attr source rcvdPk
attr title "packets received, count"
scalar Throughput.sourceHost.app[0] rcvdPk:sum(packetBytes) 0
attr interpolationmode none
attr source rcvdPk
attr title "packets received, sum(packetBytes)"
scalar Throughput.sourceHost.app[0] throughput:mean -nan
attr source throughput(rcvdPk)
attr title "throughput, mean"
attr unit bps
statistic Throughput.sourceHost.app[0] rcvdPkLifetime:stats
field count 0
field mean -nan
field stddev -nan
field min -nan
field max -nan
field sum 0
field sqrsum 0
attr interpolationmode none
attr source messageAge(rcvdPk)
attr title "received packet lifetime, stats"
attr unit s
scalar Throughput.sourceHost.app[0] sentPk:count 11250
attr interpolationmode none
attr source sentPk
attr title "packets sent, count"
scalar Throughput.sourceHost.app[0] sentPk:sum(packetBytes) 1125000
attr interpolationmode none
attr source sentPk
attr title "packets sent, sum(packetBytes)"
scalar Throughput.destinationHost.lo[0].lo rcvdPkFromHL:count 0
attr interpolationmode none
attr source packetReceivedFromUpper
attr title "packets received from higher layer, count"
scalar Throughput.destinationHost.lo[0].lo rcvdPkFromHL:sum(packetBytes) 0
attr interpolationmode none
attr source packetReceivedFromUpper
attr title "packets received from higher layer, sum(packetBytes)"
scalar Throughput.destinationHost.lo[0].lo passedUpPk:count 0
attr interpolationmode none
attr source packetSentToUpper
attr title "packets passed to higher layer, count"
scalar Throughput.destinationHost.lo[0].lo passedUpPk:sum(packetBytes) 0
attr interpolationmode none
attr source packetSentToUpper
attr title "packets passed to higher layer, sum(packetBytes)"
scalar Throughput.destinationHost.wlan[0].mac packetDropIncorrectlyReceived:count 0
attr interpolationmode none
attr source packetDropReasonIsIncorrectlyReceived(packetDrop)
attr title "packet drop: incorrectly received, count"
scalar Throughput.destinationHost.wlan[0].mac packetDropIncorrectlyReceived:sum(packetBytes) 0
attr interpolationmode none
attr source packetDropReasonIsIncorrectlyReceived(packetDrop)
attr title "packet drop: incorrectly received, sum(packetBytes)"
scalar Throughput.destinationHost.wlan[0].mac packetDropNotAddressedToUs:count 0
attr interpolationmode none
attr source packetDropReasonIsNotAddressedToUs(packetDrop)
attr title "packet drop: not addressed to us, count"
scalar Throughput.destinationHost.wlan[0].mac packetDropNotAddressedToUs:sum(packetBytes) 0
attr interpolationmode none
attr source packetDropReasonIsNotAddressedToUs(packetDrop)
attr title "packet drop: not addressed to us, sum(packetBytes)"
scalar Throughput.destinationHost.wlan[0].mac packetDropQueueOverflow:count 0
attr interpolationmode none
attr source packetDropReasonIsQueueOverflow(packetDrop)
attr title "packet drop: queue overflow, count"
scalar Throughput.destinationHost.wlan[0].mac packetDropQueueOverflow:sum(packetBytes) 0
attr interpolationmode none
attr source packetDropReasonIsQueueOverflow(packetDrop)
attr title "packet drop: queue overflow, sum(packetBytes)"
scalar Throughput.destinationHost.wlan[0].mac packetDropRetryLimitReached:count 0
attr interpolationmode none
attr source packetDropReasonIsRetryLimitReached(packetDrop)
attr title "packet drop: retry limit reached, count"
scalar Throughput.destinationHost.wlan[0].mac packetDropRetryLimitReached:sum(packetBytes) 0
attr interpolationmode none
attr source packetDropReasonIsRetryLimitReached(packetDrop)
attr title "packet drop: retry limit reached, sum(packetBytes)"
scalar Throughput.destinationHost.wlan[0].mac linkBreak:count 0
attr interpolationmode none
attr source linkBreak
attr title "link break, count"
scalar Throughput.destinationHost.wlan[0].mac rcvdPkFromLL:count 3002
attr interpolationmode none
attr source packetReceivedFromLower
attr title "packets received from lower layer, count"
scalar Throughput.destinationHost.wlan[0].mac rcvdPkFromLL:sum(packetBytes) 492328
attr interpolationmode none
attr source packetReceivedFromLower
attr title "packets received from lower layer, sum(packetBytes)"
scalar Throughput.destinationHost.wlan[0].mac sentDownPk:count 3002
attr interpolationmode none
attr source packetSentToLower
attr title "packets sent to lower layer, count"
scalar Throughput.destinationHost.wlan[0].mac sentDownPk:sum(packetBytes) 42028
attr interpolationmode none
attr source packetSentToLower
attr title "packets sent to lower layer, sum(packetBytes)"
scalar Throughput.destinationHost.wlan[0].mac rcvdPkFromHL:count 0
attr interpolationmode none
attr source packetReceivedFromUpper
attr title "packets received from higher layer, count"
scalar Throughput.destinationHost.wlan[0].mac rcvdPkFromHL:sum(packetBytes) 0
attr interpolationmode none
attr source packetReceivedFromUpper
attr title "packets received from higher layer, sum(packetBytes)"
scalar Throughput.destinationHost.wlan[0].mac passedUpPk:count 3002
attr interpolationmode none
attr source packetSentToUpper
attr title "packets passed to higher layer, count"
scalar Throughput.destinationHost.wlan[0].mac passedUpPk:sum(packetBytes) 408272
attr interpolationmode none
attr source packetSentToUpper
attr title "packets passed to higher layer, sum(packetBytes)"
statistic Throughput.destinationHost.wlan[0].radio radioChannel:histogram
field count 1
field mean 0
field stddev -nan
field min 0
field max 0
field sum 0
field sqrsum 0
attr interpolationmode sample-hold
attr source radioChannelChanged
attr title "Radio channel, histogram"
bin	-inf	0
bin	-0.5	0
bin	-0.46666666666667	0
bin	-0.43333333333333	0
bin	-0.4	0
bin	-0.36666666666667	0
bin	-0.33333333333333	0
bin	-0.3	0
bin	-0.26666666666667	0
bin	-0.23333333333333	0
bin	-0.2	0
bin	-0.16666666666667	0
bin	-0.13333333333333	0
bin	-0.1	0
bin	-0.066666666666667	0
bin	-0.033333333333333	0
bin	0	1
bin	0.033333333333333	0
bin	0.066666666666667	0
bin	0.1	0
bin	0.13333333333333	0
bin	0.16666666666667	0
bin	0.2	0
bin	0.23333333333333	0
bin	0.26666666666667	0
bin	0.3	0
bin	0.33333333333333	0
bin	0.36666666666667	0
bin	0.4	0
bin	0.43333333333333	0
bin	0.46666666666667	0
bin	0.5	0
scalar Throughput.destinationHost.wlan[0].radio transmissionState:count 12008
attr interpolationmode sample-hold
attr source transmissionStateChanged
attr title "Radio transmission state, count"
scalar Throughput.destinationHost.wlan[0].radio receptionState:count 12009
attr interpolationmode sample-hold
attr source receptionStateChanged
attr title "Radio reception state, count"
scalar Throughput.destinationHost.wlan[0].radio radioMode:count 6006
attr interpolationmode sample-hold
attr source radioModeChanged
attr title "Radio mode, count"
statistic Throughput.destinationHost.wlan[0].radio symbolErrorRate:histogram
field count 0
field mean -nan
field stddev -nan
field min -nan
field max -nan
field sum 0
field sqrsum 0
attr source symbolErrorRate
attr title "Symbol error rate, histogram"
bin	-inf	0
bin	-0.5	0
bin	-0.46666666666667	0
bin	-0.43333333333333	0
bin	-0.4	0
bin	-0.36666666666667	0
bin	-0.33333333333333	0
bin	-0.3	0
bin	-0.26666666666667	0
bin	-0.23333333333333	0
bin	-0.2	0
bin	-0.16666666666667	0
bin	-0.13333333333333	0
bin	-0.1	0
bin	-0.066666666666667	0
bin	-0.033333333333333	0
bin	0	0
bin	0.033333333333333	0
bin	0.066666666666667	0
bin	0.1	0
bin	0.13333333333333	0
bin	0.16666666666667	0
bin	0.2	0
bin	0.23333333333333	0
bin	0.26666666666667	0
bin	0.3	0
bin	0.33333333333333	0
bin	0.36666666666667	0
bin	0.4	0
bin	0.43333333333333	0
bin	0.46666666666667	0
bin	0.5	0
statistic Throughput.destinationHost.wlan[0].radio bitErrorRate:histogram
field count 0
field mean -nan
field stddev -nan
field min -nan
field max -nan
field sum 0
field sqrsum 0
attr source bitErrorRate
attr title "Bit error rate, histogram"
bin	-inf	0
bin	-0.5	0
bin	-0.46666666666667	0
bin	-0.43333333333333	0
bin	-0.4	0
bin	-0.36666666666667	0
bin	-0.33333333333333	0
bin	-0.3	0
bin	-0.26666666666667	0
bin	-0.23333333333333	0
bin	-0.2	0
bin	-0.16666666666667	0
bin	-0.13333333333333	0
bin	-0.1	0
bin	-0.066666666666667	0
bin	-0.033333333333333	0
bin	0	0
bin	0.033333333333333	0
bin	0.066666666666667	0
bin	0.1	0
bin	0.13333333333333	0
bin	0.16666666666667	0
bin	0.2	0
bin	0.23333333333333	0
bin	0.26666666666667	0
bin	0.3	0
bin	0.33333333333333	0
bin	0.36666666666667	0
bin	0.4	0
bin	0.43333333333333	0
bin	0.46666666666667	0
bin	0.5	0
statistic Throughput.destinationHost.wlan[0].radio packetErrorRate:histogram
field count 3002
field mean 0
field stddev 0
field min 0
field max 0
field sum 0
field sqrsum 0
attr source packetErrorRate
attr title "Packet error rate, histogram"
bin	-inf	0
bin	-0.5	0
bin	-0.46666666666667	0
bin	-0.43333333333333	0
bin	-0.4	0
bin	-0.36666666666667	0
bin	-0.33333333333333	0
bin	-0.3	0
bin	-0.26666666666667	0
bin	-0.23333333333333	0
bin	-0.2	0
bin	-0.16666666666667	0
bin	-0.13333333333333	0
bin	-0.1	0
bin	-0.066666666666667	0
bin	-0.033333333333333	0
bin	0	3002
bin	0.033333333333333	0
bin	0.066666666666667	0
bin	0.1	0
bin	0.13333333333333	0
bin	0.16666666666667	0
bin	0.2	0
bin	0.23333333333333	0
bin	0.26666666666667	0
bin	0.3	0
bin	0.33333333333333	0
bin	0.36666666666667	0
bin	0.4	0
bin	0.43333333333333	0
bin	0.46666666666667	0
bin	0.5	0
statistic Throughput.destinationHost.wlan[0].radio minSNIR:histogram
field count 3002
field mean 195657755.21038
field stddev 44.762053715721
field min 195657755.21039
field max 195657755.21039
field sum 587364581141.57
field sqrsum 1.1492243543625e+20
attr source minSNIR
attr title "Min SNIR, histogram"
bin	-inf	0
bin	195657754.71039	0
bin	195657754.74372	0
bin	195657754.77705	0
bin	195657754.81039	0
bin	195657754.84372	0
bin	195657754.87705	0
bin	195657754.91039	0
bin	195657754.94372	0
bin	195657754.97705	0
bin	195657755.01039	0
bin	195657755.04372	0
bin	195657755.07705	0
bin	195657755.11039	0
bin	195657755.14372	0
bin	195657755.17705	0
bin	195657755.21039	3002
bin	195657755.24372	0
bin	195657755.27705	0
bin	195657755.31039	0
bin	195657755.34372	0
bin	195657755.37705	0
bin	195657755.41039	0
bin	195657755.44372	0
bin	195657755.47705	0
bin	195657755.51039	0
bin	195657755.54372	0
bin	195657755.57705	0
bin	195657755.61039	0
bin	195657755.64372	0
bin	195657755.67705	0
bin	195657755.71039	0
scalar Throughput.destinationHost.ipv4.ip packetDropAddressResolutionFailed:count 0
attr interpolationmode none
attr source packetDropReasonIsAddressResolutionFailed(packetDrop)
attr title "packet drop: address resolution failed, count"
scalar Throughput.destinationHost.ipv4.ip packetDropAddressResolutionFailed:sum(packetBytes) 0
attr interpolationmode none
attr source packetDropReasonIsAddressResolutionFailed(packetDrop)
attr title "packet drop: address resolution failed, sum(packetBytes)"
scalar Throughput.destinationHost.ipv4.ip packetDropHopLimitReached:count 0
attr interpolationmode none
attr source packetDropReasonIsHopLimitReached(packetDrop)
attr title "packet drop: hop limit reached, count"
scalar Throughput.destinationHost.ipv4.ip packetDropHopLimitReached:sum(packetBytes) 0
attr interpolationmode none
attr source packetDropReasonIsHopLimitReached(packetDrop)
attr title "packet drop: hop limit reached, sum(packetBytes)"
scalar Throughput.destinationHost.ipv4.ip packetDropForwardingDisabled:count 0
attr interpolationmode none
attr source packetDropReasonIsForwardingDisabled(packetDrop)
attr title "packet drop: forwarding disabled, count"
scalar Throughput.destinationHost.ipv4.ip packetDropForwardingDisabled:sum(packetBytes) 0
attr interpolationmode none
attr source packetDropReasonIsForwardingDisabled(packetDrop)
attr title "packet drop: forwarding disabled, sum(packetBytes)"
scalar Throughput.destinationHost.ipv4.ip packetDropNoInterfaceFound:count 0
attr interpolationmode none
attr source packetDropReasonIsNoInterfaceFound(packetDrop)
attr title "packet drop: no interface found, count"
scalar Throughput.destinationHost.ipv4.ip packetDropNoInterfaceFound:sum(packetBytes) 0
attr interpolationmode none
attr source packetDropReasonIsNoInterfaceFound(packetDrop)
attr title "packet drop: no interface found, sum(packetBytes)"
scalar Throughput.destinationHost.ipv4.ip packetDropNoRouteFound:count 0
attr interpolationmode none
attr source packetDropReasonIsNoRouteFound(packetDrop)
attr title "packet drop: no route found, count"
scalar Throughput.destinationHost.ipv4.ip packetDropNoRouteFound:sum(packetBytes) 0
attr interpolationmode none
attr source packetDropReasonIsNoRouteFound(packetDrop)
attr title "packet drop: no route found, sum(packetBytes)"
scalar Throughput.destinationHost.ipv4.ip packetDropUndefined:count 0
attr interpolationmode none
attr source packetDropReasonIsUndefined(packetDrop)
attr title "packet drop: undefined, count"
scalar Throughput.destinationHost.ipv4.ip packetDropUndefined:sum(packetBytes) 0
attr interpolationmode none
attr source packetDropReasonIsUndefined(packetDrop)
attr title "packet drop: undefined, sum(packetBytes)"
scalar Throughput.destinationHost.udp droppedPkBadChecksum:count 0
attr interpolationmode none
attr title "packets dropped (checksum error), count"
scalar Throughput.destinationHost.udp droppedPkWrongPort:count 0
attr interpolationmode none
attr title "packets dropped (wrong port), count"
scalar Throughput.destinationHost.udp passedUpPk:count 3002
attr interpolationmode none
attr title "packets passed up, count"
scalar Throughput.destinationHost.udp rcvdPk:count 3002
attr interpolationmode none
attr source rcvdPk
attr title "packets received, count"
scalar Throughput.destinationHost.udp rcvdPk:sum(packetBytes) 324216
attr interpolationmode none
attr source rcvdPk
attr title "packets received, sum(packetBytes)"
scalar Throughput.destinationHost.udp sentPk:count 0
attr interpolationmode none
attr source sentPk
attr title "packets sent, count"
scalar Throughput.destinationHost.udp sentPk:sum(packetBytes) 0
attr interpolationmode none
attr source sentPk
attr title "packets sent, sum(packetBytes)"
scalar Throughput.destinationHost.app[0] rcvdPk:count 3002
attr interpolationmode none
attr source rcvdPk
attr title "packets received, count"
scalar Throughput.destinationHost.app[0] rcvdPk:sum(packetBytes) 300200
attr interpolationmode none
attr source rcvdPk
attr title "packets received, sum(packetBytes)"
scalar Throughput.destinationHost.app[0] throughput:mean 2401887.1398498
attr source throughput(rcvdPk)
attr title "throughput, mean"
attr unit bps
statistic Throughput.destinationHost.app[0] endToEndDelay:histogram
field count 3002
field mean 0.0051133881369923
field stddev 0.00027699365362603
field min 0.000305003336
field max 0.005674857916
field sum 15.350391187251
field sqrsum 0.078722761373012
attr interpolationmode none
attr source messageAge(rcvdPk)
attr title "end-to-end delay, histogram"
attr unit s
bin	-inf	0
bin	-0.0022563267875	0
bin	-0.0019148161043667	0
bin	-0.0015733054212333	0
bin	-0.0012317947381	0
bin	-0.00089028405496667	0
bin	-0.00054877337183333	0
bin	-0.0002072626887	0
bin	0.00013424799443333	1
bin	0.00047575867756667	1
bin	0.0008172693607	1
bin	0.0011587800438333	2
bin	0.0015002907269667	1
bin	0.0018418014101	2
bin	0.0021833120932333	1
bin	0.0025248227763667	1
bin	0.0028663334595	2
bin	0.0032078441426333	1
bin	0.0035493548257667	1
bin	0.0038908655089	1
bin	0.0042323761920333	2
bin	0.0045738868751667	282
bin	0.0049153975583	2009
bin	0.0052569082414333	688
bin	0.0055984189245667	6
bin	0.0059399296077	0
bin	0.0062814402908333	0
bin	0.0066229509739667	0
bin	0.0069644616571	0
bin	0.0073059723402333	0
bin	0.0076474830233667	0
bin	0.0079889937065	0
scalar Throughput.radioMedium.propagation "Arrival computation count" 6004
scalar Throughput.radioMedium "transmission count" 6004
scalar Throughput.radioMedium "signal send count" 6004
scalar Throughput.radioMedium "reception computation count" 6004
scalar Throughput.radioMedium "interference computation count" 48034
scalar Throughput.radioMedium "reception decision computation count" 12008
scalar Throughput.radioMedium "listening decision computation count" 12010
scalar Throughput.radioMedium "reception cache hit" 93.75
attr unit %
scalar Throughput.radioMedium "interference cache hit" 75
attr unit %
scalar Throughput.radioMedium "noise cache hit" 0
attr unit %
scalar Throughput.radioMedium "snir cache hit" 80
attr unit %
scalar Throughput.radioMedium "reception decision cache hit" 0
attr unit %
scalar Throughput.radioMedium "reception result cache hit" 0
attr unit %

version 2
run General-4-20171027-11:40:36-11654
attr configname General
attr datetime 20171027-11:40:36
attr experiment General
attr inifile omnetpp.ini
attr iterationvars "$bitrate=12, $packetLength=100"
attr iterationvarsf bitrate=12,packetLength=100-
attr measurement "$bitrate=12, $packetLength=100"
attr network Throughput
attr processid 11654
attr repetition 0
attr replication #0
attr resultdir results
attr runnumber 4
attr seedset 4
itervar bitrate 12
itervar packetLength 100
param *.*Host.ipv4.arpType "\"GlobalARP\""
param *.*Host.wlan[*].mgmtType "\"Ieee80211MgmtAdhoc\""
param *.*Host.wlan[*].opMode "\"g(erp)\""
param *.*Host.wlan[*].bitrate 12Mbps
param *.*Host.wlan[*].radio.separateReceptionParts true
param *.*Host.wlan[*].radio.separateTransmissionParts true
param *.sourceHost.numApps 1
param *.sourceHost.app[0].typename "\"UDPBasicApp\""
param *.sourceHost.app[*].destAddresses "\"destinationHost\""
param *.sourceHost.app[*].destPort 5000
param *.sourceHost.app[*].messageLength 100byte
param *.sourceHost.app[*].packetName "\"UDPData-\""
param *.sourceHost.app[*].startTime 0s
param *.sourceHost.app[*].sendInterval "100 * 8 / 12 * 1us"
param *.destinationHost.numApps 1
param *.destinationHost.app[0].typename "\"UDPSink\""
param *.destinationHost.app[*].localPort 5000

scalar Throughput.sourceHost.lo[0].lo rcvdPkFromHL:count 0
attr interpolationmode none
attr source packetReceivedFromUpper
attr title "packets received from higher layer, count"
scalar Throughput.sourceHost.lo[0].lo rcvdPkFromHL:sum(packetBytes) 0
attr interpolationmode none
attr source packetReceivedFromUpper
attr title "packets received from higher layer, sum(packetBytes)"
scalar Throughput.sourceHost.lo[0].lo passedUpPk:count 0
attr interpolationmode none
attr source packetSentToUpper
attr title "packets passed to higher layer, count"
scalar Throughput.sourceHost.lo[0].lo passedUpPk:sum(packetBytes) 0
attr interpolationmode none
attr source packetSentToUpper
attr title "packets passed to higher layer, sum(packetBytes)"
scalar Throughput.sourceHost.wlan[0].mac packetDropIncorrectlyReceived:count 0
attr interpolationmode none
attr source packetDropReasonIsIncorrectlyReceived(packetDrop)
attr title "packet drop: incorrectly received, count"
scalar Throughput.sourceHost.wlan[0].mac packetDropIncorrectlyReceived:sum(packetBytes) 0
attr interpolationmode none
attr source packetDropReasonIsIncorrectlyReceived(packetDrop)
attr title "packet drop: incorrectly received, sum(packetBytes)"
scalar Throughput.sourceHost.wlan[0].mac packetDropNotAddressedToUs:count 0
attr interpolationmode none
attr source packetDropReasonIsNotAddressedToUs(packetDrop)
attr title "packet drop: not addressed to us, count"
scalar Throughput.sourceHost.wlan[0].mac packetDropNotAddressedToUs:sum(packetBytes) 0
attr interpolationmode none
attr source packetDropReasonIsNotAddressedToUs(packetDrop)
attr title "packet drop: not addressed to us, sum(packetBytes)"
scalar Throughput.sourceHost.wlan[0].mac packetDropQueueOverflow:count 11432
attr interpolationmode none
attr source packetDropReasonIsQueueOverflow(packetDrop)
attr title "packet drop: queue overflow, count"
scalar Throughput.sourceHost.wlan[0].mac packetDropQueueOverflow:sum(packetBytes) 1874848
attr interpolationmode none
attr source packetDropReasonIsQueueOverflow(packetDrop)
attr title "packet drop: queue overflow, sum(packetBytes)"
scalar Throughput.sourceHost.wlan[0].mac packetDropRetryLimitReached:count 0
attr interpolationmode none
attr source packetDropReasonIsRetryLimitReached(packetDrop)
attr title "packet drop: retry limit reached, count"
scalar Throughput.sourceHost.wlan[0].mac packetDropRetryLimitReached:sum(packetBytes) 0
attr interpolationmode none
attr source packetDropReasonIsRetryLimitReached(packetDrop)
attr title "packet drop: retry limit reached, sum(packetBytes)"
scalar Throughput.sourceHost.wlan[0].mac linkBreak:count 0
attr interpolationmode none
attr source linkBreak
attr title "link break, count"
scalar Throughput.sourceHost.wlan[0].mac rcvdPkFromLL:count 3553
attr interpolationmode none
attr source packetReceivedFromLower
attr title "packets received from lower layer, count"
scalar Throughput.sourceHost.wlan[0].mac rcvdPkFromLL:sum(packetBytes) 49742
attr interpolationmode none
attr source packetReceivedFromLower
attr title "packets received from lower layer, sum(packetBytes)"
scalar Throughput.sourceHost.wlan[0].mac sentDownPk:count 3553
attr interpolationmode none
attr source packetSentToLower
attr title "packets sent to lower layer, count"
scalar Throughput.sourceHost.wlan[0].mac sentDownPk:sum(packetBytes) 582692
attr interpolationmode none
attr source packetSentToLower
attr title "packets sent to lower layer, sum(packetBytes)"
scalar Throughput.sourceHost.wlan[0].mac rcvdPkFromHL:count 15000
attr interpolationmode none
attr source packetReceivedFromUpper
attr title "packets received from higher layer, count"
scalar Throughput.sourceHost.wlan[0].mac rcvdPkFromHL:sum(packetBytes) 2040000
attr interpolationmode none
attr source packetReceivedFromUpper
attr title "packets received from higher layer, sum(packetBytes)"
scalar Throughput.sourceHost.wlan[0].mac passedUpPk:count 0
attr interpolationmode none
attr source packetSentToUpper
attr title "packets passed to higher layer, count"
scalar Throughput.sourceHost.wlan[0].mac passedUpPk:sum(packetBytes) 0
attr interpolationmode none
attr source packetSentToUpper
attr title "packets passed to higher layer, sum(packetBytes)"
statistic Throughput.sourceHost.wlan[0].radio radioChannel:histogram
field count 1
field mean 0
field stddev -nan
field min 0
field max 0
field sum 0
field sqrsum 0
attr interpolationmode sample-hold
attr source radioChannelChanged
attr title "Radio channel, histogram"
bin	-inf	0
bin	-0.5	0
bin	-0.46666666666667	0
bin	-0.43333333333333	0
bin	-0.4	0
bin	-0.36666666666667	0
bin	-0.33333333333333	0
bin	-0.3	0
bin	-0.26666666666667	0
bin	-0.23333333333333	0
bin	-0.2	0
bin	-0.16666666666667	0
bin	-0.13333333333333	0
bin	-0.1	0
bin	-0.066666666666667	0
bin	-0.033333333333333	0
bin	0	1
bin	0.033333333333333	0
bin	0.066666666666667	0
bin	0.1	0
bin	0.13333333333333	0
bin	0.16666666666667	0
bin	0.2	0
bin	0.23333333333333	0
bin	0.26666666666667	0
bin	0.3	0
bin	0.33333333333333	0
bin	0.36666666666667	0
bin	0.4	0
bin	0.43333333333333	0
bin	0.46666666666667	0
bin	0.5	0
scalar Throughput.sourceHost.wlan[0].radio transmissionState:count 14212
attr interpolationmode sample-hold
attr source transmissionStateChanged
attr title "Radio transmission state, count"
scalar Throughput.sourceHost.wlan[0].radio receptionState:count 14213
attr interpolationmode sample-hold
attr source receptionStateChanged
attr title "Radio reception state, count"
scalar Throughput.sourceHost.wlan[0].radio radioMode:count 7108
attr interpolationmode sample-hold
attr source radioModeChanged
attr title "Radio mode, count"
statistic Throughput.sourceHost.wlan[0].radio symbolErrorRate:histogram
field count 0
field mean -nan
field stddev -nan
field min -nan
field max -nan
field sum 0
field sqrsum 0
attr source symbolErrorRate
attr title "Symbol error rate, histogram"
bin	-inf	0
bin	-0.5	0
bin	-0.46666666666667	0
bin	-0.43333333333333	0
bin	-0.4	0
bin	-0.36666666666667	0
bin	-0.33333333333333	0
bin	-0.3	0
bin	-0.26666666666667	0
bin	-0.23333333333333	0
bin	-0.2	0
bin	-0.16666666666667	0
bin	-0.13333333333333	0
bin	-0.1	0
bin	-0.066666666666667	0
bin	-0.033333333333333	0
bin	0	0
bin	0.033333333333333	0
bin	0.066666666666667	0
bin	0.1	0
bin	0.13333333333333	0
bin	0.16666666666667	0
bin	0.2	0
bin	0.23333333333333	0
bin	0.26666666666667	0
bin	0.3	0
bin	0.33333333333333	0
bin	0.36666666666667	0
bin	0.4	0
bin	0.43333333333333	0
bin	0.46666666666667	0
bin	0.5	0
statistic Throughput.sourceHost.wlan[0].radio bitErrorRate:histogram
field count 0
field mean -nan
field stddev -nan
field min -nan
field max -nan
field sum 0
field sqrsum 0
attr source bitErrorRate
attr title "Bit error rate, histogram"
bin	-inf	0
bin	-0.5	0
bin	-0.46666666666667	0
bin	-0.43333333333333	0
bin	-0.4	0
bin	-0.36666666666667	0
bin	-0.33333333333333	0
bin	-0.3	0
bin	-0.26666666666667	0
bin	-0.23333333333333	0
bin	-0.2	0
bin	-0.16666666666667	0
bin	-0.13333333333333	0
bin	-0.1	0
bin	-0.066666666666667	0
bin	-0.033333333333333	0
bin	0	0
bin	0.033333333333333	0
bin	0.066666666666667	0
bin	0.1	0
bin	0.13333333333333	0
bin	0.16666666666667	0
bin	0.2	0
bin	0.23333333333333	0
bin	0.26666666666667	0
bin	0.3	0
bin	0.33333333333333	0
bin	0.36666666666667	0
bin	0.4	0
bin	0.43333333333333	0
bin	0.46666666666667	0
bin	0.5	0
statistic Throughput.sourceHost.wlan[0].radio packetErrorRate:histogram
field count 3553
field mean 0
field stddev 0
field min 0
field max 0
field sum 0
field sqrsum 0
attr source packetErrorRate
attr title "Packet error rate, histogram"
bin	-inf	0
bin	-0.5	0
bin	-0.46666666666667	0
bin	-0.43333333333333	0
bin	-0.4	0
bin	-0.36666666666667	0
bin	-0.33333333333333	0
bin	-0.3	0
bin	-0.26666666666667	0
bin	-0.23333333333333	0
bin	-0.2	0
bin	-0.16666666666667	0
bin	-0.13333333333333	0
bin	-0.1	0
bin	-0.066666666666667	0
bin	-0.033333333333333	0
bin	0	3553
bin	0.033333333333333	0
bin	0.066666666666667	0
bin	0.1	0
bin	0.13333333333333	0
bin	0.16666666666667	0
bin	0.2	0
bin	0.23333333333333	0
bin	0.26666666666667	0
bin	0.3	0
bin	0.33333333333333	0
bin	0.36666666666667	0
bin	0.4	0
bin	0.43333333333333	0
bin	0.46666666666667	0
bin	0.5	0
statistic Throughput.sourceHost.wlan[0].radio minSNIR:histogram
field count 3553
field mean 195657755.21038
field stddev 74.243330152089
field min 195657755.21039
field max 195657755.21039
field sum 695172004262.46
field sqrsum 1.3601579383911e+20
attr source minSNIR
attr title "Min SNIR, histogram"
bin	-inf	0
bin	195657754.71039	0
bin	195657754.74372	0
bin	195657754.77705	0
bin	195657754.81039	0
bin	195657754.84372	0
bin	195657754.87705	0
bin	195657754.91039	0
bin	195657754.94372	0
bin	195657754.97705	0
bin	195657755.01039	0
bin	195657755.04372	0
bin	195657755.07705	0
bin	195657755.11039	0
bin	195657755.14372	0
bin	195657755.17705	0
bin	195657755.21039	3553
bin	195657755.24372	0
bin	195657755.27705	0
bin	195657755.31039	0
bin	195657755.34372	0
bin	195657755.37705	0
bin	195657755.41039	0
bin	195657755.44372	0
bin	195657755.47705	0
bin	195657755.51039	0
bin	195657755.54372	0
bin	195657755.57705	0
bin	195657755.61039	0
bin	195657755.64372	0
bin	195657755.67705	0
bin	195657755.71039	0
scalar Throughput.sourceHost.ipv4.ip packetDropAddressResolutionFailed:count 0
attr interpolationmode none
attr source packetDropReasonIsAddressResolutionFailed(packetDrop)
attr title "packet drop: address resolution failed, count"
scalar Throughput.sourceHost.ipv4.ip packetDropAddressResolutionFailed:sum(packetBytes) 0
attr interpolationmode none
attr source packetDropReasonIsAddressResolutionFailed(packetDrop)
attr title "packet drop: address resolution failed, sum(packetBytes)"
scalar Throughput.sourceHost.ipv4.ip packetDropHopLimitReached:count 0
attr interpolationmode none
attr source packetDropReasonIsHopLimitReached(packetDrop)
attr title "packet drop: hop limit reached, count"
scalar Throughput.sourceHost.ipv4.ip packetDropHopLimitReached:sum(packetBytes) 0
attr interpolationmode none
attr source packetDropReasonIsHopLimitReached(packetDrop)
attr title "packet drop: hop limit reached, sum(packetBytes)"
scalar Throughput.sourceHost.ipv4.ip packetDropForwardingDisabled:count 0
attr interpolationmode none
attr source packetDropReasonIsForwardingDisabled(packetDrop)
attr title "packet drop: forwarding disabled, count"
scalar Throughput.sourceHost.ipv4.ip packetDropForwardingDisabled:sum(packetBytes) 0
attr interpolationmode none
attr source packetDropReasonIsForwardingDisabled(packetDrop)
attr title "packet drop: forwarding disabled, sum(packetBytes)"
scalar Throughput.sourceHost.ipv4.ip packetDropNoInterfaceFound:count 0
attr interpolationmode none
attr source packetDropReasonIsNoInterfaceFound(packetDrop)
attr title "packet drop: no interface found, count"
scalar Throughput.sourceHost.ipv4.ip packetDropNoInterfaceFound:sum(packetBytes) 0
attr interpolationmode none
attr source packetDropReasonIsNoInterfaceFound(packetDrop)
attr title "packet drop: no interface found, sum(packetBytes)"
scalar Throughput.sourceHost.ipv4.ip packetDropNoRouteFound:count 0
attr interpolationmode none
attr source packetDropReasonIsNoRouteFound(packetDrop)
attr title "packet drop: no route found, count"
scalar Throughput.sourceHost.ipv4.ip packetDropNoRouteFound:sum(packetBytes) 0
attr interpolationmode none
attr source packetDropReasonIsNoRouteFound(packetDrop)
attr title "packet drop: no route found, sum(packetBytes)"
scalar Throughput.sourceHost.ipv4.ip packetDropUndefined:count 0
attr interpolationmode none
attr source packetDropReasonIsUndefined(packetDrop)
attr title "packet drop: undefined, count"
scalar Throughput.sourceHost.ipv4.ip packetDropUndefined:sum(packetBytes) 0
attr interpolationmode none
attr source packetDropReasonIsUndefined(packetDrop)
attr title "packet drop: undefined, sum(packetBytes)"
scalar Throughput.sourceHost.udp droppedPkBadChecksum:count 0
attr interpolationmode none
attr title "packets dropped (checksum error), count"
scalar Throughput.sourceHost.udp droppedPkWrongPort:count 0
attr interpolationmode none
attr title "packets dropped (wrong port), count"
scalar Throughput.sourceHost.udp passedUpPk:count 0
attr interpolationmode none
attr title "packets passed up, count"
scalar Throughput.sourceHost.udp rcvdPk:count 0
attr interpolationmode none
attr source rcvdPk
attr title "packets received, count"
scalar Throughput.sourceHost.udp rcvdPk:sum(packetBytes) 0
attr interpolationmode none
attr source rcvdPk
attr title "packets received, sum(packetBytes)"
scalar Throughput.sourceHost.udp sentPk:count 15000
attr interpolationmode none
attr source sentPk
attr title "packets sent, count"
scalar Throughput.sourceHost.udp sentPk:sum(packetBytes) 1620000
attr interpolationmode none
attr source sentPk
attr title "packets sent, sum(packetBytes)"
scalar Throughput.sourceHost.app[0] "packets sent" 15000
scalar Throughput.sourceHost.app[0] "packets received" 0
scalar Throughput.sourceHost.app[0] rcvdPk:count 0
attr interpolationmode none
attr source rcvdPk
attr title "packets received, count"
scalar Throughput.sourceHost.app[0] rcvdPk:sum(packetBytes) 0
attr interpolationmode none
attr source rcvdPk
attr title "packets received, sum(packetBytes)"
scalar Throughput.sourceHost.app[0] throughput:mean -nan
attr source throughput(rcvdPk)
attr title "throughput, mean"
attr unit bps
statistic Throughput.sourceHost.app[0] rcvdPkLifetime:stats
field count 0
field mean -nan
field stddev -nan
field min -nan
field max -nan
field sum 0
field sqrsum 0
attr interpolationmode none
attr source messageAge(rcvdPk)
attr title "received packet lifetime, stats"
attr unit s
scalar Throughput.sourceHost.app[0] sentPk:count 15000
attr interpolationmode none
attr source sentPk
attr title "packets sent, count"
scalar Throughput.sourceHost.app[0] sentPk:sum(packetBytes) 1500000
attr interpolationmode none
attr source sentPk
attr title "packets sent, sum(packetBytes)"
scalar Throughput.destinationHost.lo[0].lo rcvdPkFromHL:count 0
attr interpolationmode none
attr source packetReceivedFromUpper
attr title "packets received from higher layer, count"
scalar Throughput.destinationHost.lo[0].lo rcvdPkFromHL:sum(packetBytes) 0
attr interpolationmode none
attr source packetReceivedFromUpper
attr title "packets received from higher layer, sum(packetBytes)"
scalar Throughput.destinationHost.lo[0].lo passedUpPk:count 0
attr interpolationmode none
attr source packetSentToUpper
attr title "packets passed to higher layer, count"
scalar Throughput.destinationHost.lo[0].lo passedUpPk:sum(packetBytes) 0
attr interpolationmode none
attr source packetSentToUpper
attr title "packets passed to higher layer, sum(packetBytes)"
scalar Throughput.destinationHost.wlan[0].mac packetDropIncorrectlyReceived:count 0
attr interpolationmode none
attr source packetDropReasonIsIncorrectlyReceived(packetDrop)
attr title "packet drop: incorrectly received, count"
scalar Throughput.destinationHost.wlan[0].mac packetDropIncorrectlyReceived:sum(packetBytes) 0
attr interpolationmode none
attr source packetDropReasonIsIncorrectlyReceived(packetDrop)
attr title "packet drop: incorrectly received, sum(packetBytes)"
scalar Throughput.destinationHost.wlan[0].mac packetDropNotAddressedToUs:count 0
attr interpolationmode none
attr source packetDropReasonIsNotAddressedToUs(packetDrop)
attr title "packet drop: not addressed to us, count"
scalar Throughput.destinationHost.wlan[0].mac packetDropNotAddressedToUs:sum(packetBytes) 0
attr interpolationmode none
attr source packetDropReasonIsNotAddressedToUs(packetDrop)
attr title "packet drop: not addressed to us, sum(packetBytes)"
scalar Throughput.destinationHost.wlan[0].mac packetDropQueueOverflow:count 0
attr interpolationmode none
attr source packetDropReasonIsQueueOverflow(packetDrop)
attr title "packet drop: queue overflow, count"
scalar Throughput.destinationHost.wlan[0].mac packetDropQueueOverflow:sum(packetBytes) 0
attr interpolationmode none
attr source packetDropReasonIsQueueOverflow(packetDrop)
attr title "packet drop: queue overflow, sum(packetBytes)"
scalar Throughput.destinationHost.wlan[0].mac packetDropRetryLimitReached:count 0
attr interpolationmode none
attr source packetDropReasonIsRetryLimitReached(packetDrop)
attr title "packet drop: retry limit reached, count"
scalar Throughput.destinationHost.wlan[0].mac packetDropRetryLimitReached:sum(packetBytes) 0
attr interpolationmode none
attr source packetDropReasonIsRetryLimitReached(packetDrop)
attr title "packet drop: retry limit reached, sum(packetBytes)"
scalar Throughput.destinationHost.wlan[0].mac linkBreak:count 0
attr interpolationmode none
attr source linkBreak
attr title "link break, count"
scalar Throughput.destinationHost.wlan[0].mac rcvdPkFromLL:count 3553
attr interpolationmode none
attr source packetReceivedFromLower
attr title "packets received from lower layer, count"
scalar Throughput.destinationHost.wlan[0].mac rcvdPkFromLL:sum(packetBytes) 582692
attr interpolationmode none
attr source packetReceivedFromLower
attr title "packets received from lower layer, sum(packetBytes)"
scalar Throughput.destinationHost.wlan[0].mac sentDownPk:count 3553
attr interpolationmode none
attr source packetSentToLower
attr title "packets sent to lower layer, count"
scalar Throughput.destinationHost.wlan[0].mac sentDownPk:sum(packetBytes) 49742
attr interpolationmode none
attr source packetSentToLower
attr title "packets sent to lower layer, sum(packetBytes)"
scalar Throughput.destinationHost.wlan[0].mac rcvdPkFromHL:count 0
attr interpolationmode none
attr source packetReceivedFromUpper
attr title "packets received from higher layer, count"
scalar Throughput.destinationHost.wlan[0].mac rcvdPkFromHL:sum(packetBytes) 0
[...]
attr title "packet drop: address resolution failed, count"
scalar Throughput.sourceHost.ipv4.ip packetDropAddressResolutionFailed:sum(packetBytes) 0
attr interpolationmode none
attr source packetDropReasonIsAddressResolutionFailed(packetDrop)
attr title "packet drop: address resolution failed, sum(packetBytes)"
scalar Throughput.sourceHost.ipv4.ip packetDropHopLimitReached:count 0
attr interpolationmode none
attr source packetDropReasonIsHopLimitReached(packetDrop)
attr title "packet drop: hop limit reached, count"
scalar Throughput.sourceHost.ipv4.ip packetDropHopLimitReached:sum(packetBytes) 0
attr interpolationmode none
attr source packetDropReasonIsHopLimitReached(packetDrop)
attr title "packet drop: hop limit reached, sum(packetBytes)"
scalar Throughput.sourceHost.ipv4.ip packetDropForwardingDisabled:count 0
attr interpolationmode none
attr source packetDropReasonIsForwardingDisabled(packetDrop)
attr title "packet drop: forwarding disabled, count"
scalar Throughput.sourceHost.ipv4.ip packetDropForwardingDisabled:sum(packetBytes) 0
attr interpolationmode none
attr source packetDropReasonIsForwardingDisabled(packetDrop)
attr title "packet drop: forwarding disabled, sum(packetBytes)"
scalar Throughput.sourceHost.ipv4.ip packetDropNoInterfaceFound:count 0
attr interpolationmode none
attr source packetDropReasonIsNoInterfaceFound(packetDrop)
attr title "packet drop: no interface found, count"
scalar Throughput.sourceHost.ipv4.ip packetDropNoInterfaceFound:sum(packetBytes) 0
attr interpolationmode none
attr source packetDropReasonIsNoInterfaceFound(packetDrop)
attr title "packet drop: no interface found, sum(packetBytes)"
scalar Throughput.sourceHost.ipv4.ip packetDropNoRouteFound:count 0
attr interpolationmode none
attr source packetDropReasonIsNoRouteFound(packetDrop)
attr title "packet drop: no route found, count"
scalar Throughput.sourceHost.ipv4.ip packetDropNoRouteFound:sum(packetBytes) 0
attr interpolationmode none
attr source packetDropReasonIsNoRouteFound(packetDrop)
attr title "packet drop: no route found, sum(packetBytes)"
scalar Throughput.sourceHost.ipv4.ip packetDropUndefined:count 0
attr interpolationmode none
attr source packetDropReasonIsUndefined(packetDrop)
attr title "packet drop: undefined, count"
scalar Throughput.sourceHost.ipv4.ip packetDropUndefined:sum(packetBytes) 0
attr interpolationmode none
attr source packetDropReasonIsUndefined(packetDrop)
attr title "packet drop: undefined, sum(packetBytes)"
scalar Throughput.sourceHost.udp droppedPkBadChecksum:count 0
attr interpolationmode none
attr title "packets dropped (checksum error), count"
scalar Throughput.sourceHost.udp droppedPkWrongPort:count 0
attr interpolationmode none
attr title "packets dropped (wrong port), count"
scalar Throughput.sourceHost.udp passedUpPk:count 0
attr interpolationmode none
attr title "packets passed up, count"
scalar Throughput.sourceHost.udp rcvdPk:count 0
attr interpolationmode none
attr source rcvdPk
attr title "packets received, count"
scalar Throughput.sourceHost.udp rcvdPk:sum(packetBytes) 0
attr interpolationmode none
attr source rcvdPk
attr title "packets received, sum(packetBytes)"
scalar Throughput.sourceHost.udp sentPk:count 67500
attr interpolationmode none
attr source sentPk
attr title "packets sent, count"
scalar Throughput.sourceHost.udp sentPk:sum(packetBytes) 7290000
attr interpolationmode none
attr source sentPk
attr title "packets sent, sum(packetBytes)"
scalar Throughput.sourceHost.app[0] "packets sent" 67500
scalar Throughput.sourceHost.app[0] "packets received" 0
scalar Throughput.sourceHost.app[0] rcvdPk:count 0
attr interpolationmode none
attr source rcvdPk
attr title "packets received, count"
scalar Throughput.sourceHost.app[0] rcvdPk:sum(packetBytes) 0
attr interpolationmode none
attr source rcvdPk
attr title "packets received, sum(packetBytes)"
scalar Throughput.sourceHost.app[0] throughput:mean -nan
attr source throughput(rcvdPk)
attr title "throughput, mean"
attr unit bps
statistic Throughput.sourceHost.app[0] rcvdPkLifetime:stats
field count 0
field mean -nan
field stddev -nan
field min -nan
field max -nan
field sum 0
field sqrsum 0
attr interpolationmode none
attr source messageAge(rcvdPk)
attr title "received packet lifetime, stats"
attr unit s
scalar Throughput.sourceHost.app[0] sentPk:count 67500
attr interpolationmode none
attr source sentPk
attr title "packets sent, count"
scalar Throughput.sourceHost.app[0] sentPk:sum(packetBytes) 6750000
attr interpolationmode none
attr source sentPk
attr title "packets sent, sum(packetBytes)"
scalar Throughput.destinationHost.lo[0].lo rcvdPkFromHL:count 0
attr interpolationmode none
attr source packetReceivedFromUpper
attr title "packets received from higher layer, count"
scalar Throughput.destinationHost.lo[0].lo rcvdPkFromHL:sum(packetBytes) 0
attr interpolationmode none
attr source packetReceivedFromUpper
attr title "packets received from higher layer, sum(packetBytes)"
scalar Throughput.destinationHost.lo[0].lo passedUpPk:count 0
attr interpolationmode none
attr source packetSentToUpper
attr title "packets passed to higher layer, count"
scalar Throughput.destinationHost.lo[0].lo passedUpPk:sum(packetBytes) 0
attr interpolationmode none
attr source packetSentToUpper
attr title "packets passed to higher layer, sum(packetBytes)"
scalar Throughput.destinationHost.wlan[0].mac packetDropIncorrectlyReceived:count 0
attr interpolationmode none
attr source packetDropReasonIsIncorrectlyReceived(packetDrop)
attr title "packet drop: incorrectly received, count"
scalar Throughput.destinationHost.wlan[0].mac packetDropIncorrectlyReceived:sum(packetBytes) 0
attr interpolationmode none
attr source packetDropReasonIsIncorrectlyReceived(packetDrop)
attr title "packet drop: incorrectly received, sum(packetBytes)"
scalar Throughput.destinationHost.wlan[0].mac packetDropNotAddressedToUs:count 0
attr interpolationmode none
attr source packetDropReasonIsNotAddressedToUs(packetDrop)
attr title "packet drop: not addressed to us, count"
scalar Throughput.destinationHost.wlan[0].mac packetDropNotAddressedToUs:sum(packetBytes) 0
attr interpolationmode none
attr source packetDropReasonIsNotAddressedToUs(packetDrop)
attr title "packet drop: not addressed to us, sum(packetBytes)"
scalar Throughput.destinationHost.wlan[0].mac packetDropQueueOverflow:count 0
attr interpolationmode none
attr source packetDropReasonIsQueueOverflow(packetDrop)
attr title "packet drop: queue overflow, count"
scalar Throughput.destinationHost.wlan[0].mac packetDropQueueOverflow:sum(packetBytes) 0
attr interpolationmode none
attr source packetDropReasonIsQueueOverflow(packetDrop)
attr title "packet drop: queue overflow, sum(packetBytes)"
scalar Throughput.destinationHost.wlan[0].mac packetDropRetryLimitReached:count 0
attr interpolationmode none
attr source packetDropReasonIsRetryLimitReached(packetDrop)
attr title "packet drop: retry limit reached, count"
scalar Throughput.destinationHost.wlan[0].mac packetDropRetryLimitReached:sum(packetBytes) 0
attr interpolationmode none
attr source packetDropReasonIsRetryLimitReached(packetDrop)
attr title "packet drop: retry limit reached, sum(packetBytes)"
scalar Throughput.destinationHost.wlan[0].mac linkBreak:count 0
attr interpolationmode none
attr source linkBreak
attr title "link break, count"
scalar Throughput.destinationHost.wlan[0].mac rcvdPkFromLL:count 5164
attr interpolationmode none
attr source packetReceivedFromLower
attr title "packets received from lower layer, count"
scalar Throughput.destinationHost.wlan[0].mac rcvdPkFromLL:sum(packetBytes) 846896
attr interpolationmode none
attr source packetReceivedFromLower
attr title "packets received from lower layer, sum(packetBytes)"
scalar Throughput.destinationHost.wlan[0].mac sentDownPk:count 5164
attr interpolationmode none
attr source packetSentToLower
attr title "packets sent to lower layer, count"
scalar Throughput.destinationHost.wlan[0].mac sentDownPk:sum(packetBytes) 72296
attr interpolationmode none
attr source packetSentToLower
attr title "packets sent to lower layer, sum(packetBytes)"
scalar Throughput.destinationHost.wlan[0].mac rcvdPkFromHL:count 0
attr interpolationmode none
attr source packetReceivedFromUpper
attr title "packets received from higher layer, count"
scalar Throughput.destinationHost.wlan[0].mac rcvdPkFromHL:sum(packetBytes) 0
attr interpolationmode none
attr source packetReceivedFromUpper
attr title "packets received from higher layer, sum(packetBytes)"
scalar Throughput.destinationHost.wlan[0].mac passedUpPk:count 5164
attr interpolationmode none
attr source packetSentToUpper
attr title "packets passed to higher layer, count"
scalar Throughput.destinationHost.wlan[0].mac passedUpPk:sum(packetBytes) 702304
attr interpolationmode none
attr source packetSentToUpper
attr title "packets passed to higher layer, sum(packetBytes)"
statistic Throughput.destinationHost.wlan[0].radio radioChannel:histogram
field count 1
field mean 0
field stddev -nan
field min 0
field max 0
field sum 0
field sqrsum 0
attr interpolationmode sample-hold
attr source radioChannelChanged
attr title "Radio channel, histogram"
bin	-inf	0
bin	-0.5	0
bin	-0.46666666666667	0
bin	-0.43333333333333	0
bin	-0.4	0
bin	-0.36666666666667	0
bin	-0.33333333333333	0
bin	-0.3	0
bin	-0.26666666666667	0
bin	-0.23333333333333	0
bin	-0.2	0
bin	-0.16666666666667	0
bin	-0.13333333333333	0
bin	-0.1	0
bin	-0.066666666666667	0
bin	-0.033333333333333	0
bin	0	1
bin	0.033333333333333	0
bin	0.066666666666667	0
bin	0.1	0
bin	0.13333333333333	0
bin	0.16666666666667	0
bin	0.2	0
bin	0.23333333333333	0
bin	0.26666666666667	0
bin	0.3	0
bin	0.33333333333333	0
bin	0.36666666666667	0
bin	0.4	0
bin	0.43333333333333	0
bin	0.46666666666667	0
bin	0.5	0
scalar Throughput.destinationHost.wlan[0].radio transmissionState:count 20656
attr interpolationmode sample-hold
attr source transmissionStateChanged
attr title "Radio transmission state, count"
scalar Throughput.destinationHost.wlan[0].radio receptionState:count 20657
attr interpolationmode sample-hold
attr source receptionStateChanged
attr title "Radio reception state, count"
scalar Throughput.destinationHost.wlan[0].radio radioMode:count 10330
attr interpolationmode sample-hold
attr source radioModeChanged
attr title "Radio mode, count"
statistic Throughput.destinationHost.wlan[0].radio symbolErrorRate:histogram
field count 0
field mean -nan
field stddev -nan
field min -nan
field max -nan
field sum 0
field sqrsum 0
attr source symbolErrorRate
attr title "Symbol error rate, histogram"
bin	-inf	0
bin	-0.5	0
bin	-0.46666666666667	0
bin	-0.43333333333333	0
bin	-0.4	0
bin	-0.36666666666667	0
bin	-0.33333333333333	0
bin	-0.3	0
bin	-0.26666666666667	0
bin	-0.23333333333333	0
bin	-0.2	0
bin	-0.16666666666667	0
bin	-0.13333333333333	0
bin	-0.1	0
bin	-0.066666666666667	0
bin	-0.033333333333333	0
bin	0	0
bin	0.033333333333333	0
bin	0.066666666666667	0
bin	0.1	0
bin	0.13333333333333	0
bin	0.16666666666667	0
bin	0.2	0
bin	0.23333333333333	0
bin	0.26666666666667	0
bin	0.3	0
bin	0.33333333333333	0
bin	0.36666666666667	0
bin	0.4	0
bin	0.43333333333333	0
bin	0.46666666666667	0
bin	0.5	0
statistic Throughput.destinationHost.wlan[0].radio bitErrorRate:histogram
field count 0
field mean -nan
field stddev -nan
field min -nan
field max -nan
field sum 0
field sqrsum 0
attr source bitErrorRate
attr title "Bit error rate, histogram"
bin	-inf	0
bin	-0.5	0
bin	-0.46666666666667	0
bin	-0.43333333333333	0
bin	-0.4	0
bin	-0.36666666666667	0
bin	-0.33333333333333	0
bin	-0.3	0
bin	-0.26666666666667	0
bin	-0.23333333333333	0
bin	-0.2	0
bin	-0.16666666666667	0
bin	-0.13333333333333	0
bin	-0.1	0
bin	-0.066666666666667	0
bin	-0.033333333333333	0
bin	0	0
bin	0.033333333333333	0
bin	0.066666666666667	0
bin	0.1	0
bin	0.13333333333333	0
bin	0.16666666666667	0
bin	0.2	0
bin	0.23333333333333	0
bin	0.26666666666667	0
bin	0.3	0
bin	0.33333333333333	0
bin	0.36666666666667	0
bin	0.4	0
bin	0.43333333333333	0
bin	0.46666666666667	0
bin	0.5	0
statistic Throughput.destinationHost.wlan[0].radio packetErrorRate:histogram
field count 5164
field mean 0
field stddev 0
field min 0
field max 0
field sum 0
field sqrsum 0
attr source packetErrorRate
attr title "Packet error rate, histogram"
bin	-inf	0
bin	-0.5	0
bin	-0.46666666666667	0
bin	-0.43333333333333	0
bin	-0.4	0
bin	-0.36666666666667	0
bin	-0.33333333333333	0
bin	-0.3	0
bin	-0.26666666666667	0
bin	-0.23333333333333	0
bin	-0.2	0
bin	-0.16666666666667	0
bin	-0.13333333333333	0
bin	-0.1	0
bin	-0.066666666666667	0
bin	-0.033333333333333	0
bin	0	5164
bin	0.033333333333333	0
bin	0.066666666666667	0
bin	0.1	0
bin	0.13333333333333	0
bin	0.16666666666667	0
bin	0.2	0
bin	0.23333333333333	0
bin	0.26666666666667	0
bin	0.3	0
bin	0.33333333333333	0
bin	0.36666666666667	0
bin	0.4	0
bin	0.43333333333333	0
bin	0.46666666666667	0
bin	0.5	0
statistic Throughput.destinationHost.wlan[0].radio minSNIR:histogram
field count 5164
field mean 195657755.21036
field stddev 85.506699738525
field min 195657755.21039
field max 195657755.21039
field sum 1010376647906.3
field sqrsum 1.9768802684635e+20
attr source minSNIR
attr title "Min SNIR, histogram"
bin	-inf	0
bin	195657754.71039	0
bin	195657754.74372	0
bin	195657754.77705	0
bin	195657754.81039	0
bin	195657754.84372	0
bin	195657754.87705	0
bin	195657754.91039	0
bin	195657754.94372	0
bin	195657754.97705	0
bin	195657755.01039	0
bin	195657755.04372	0
bin	195657755.07705	0
bin	195657755.11039	0
bin	195657755.14372	0
bin	195657755.17705	0
bin	195657755.21039	5164
bin	195657755.24372	0
bin	195657755.27705	0
bin	195657755.31039	0
bin	195657755.34372	0
bin	195657755.37705	0
bin	195657755.41039	0
bin	195657755.44372	0
bin	195657755.47705	0
bin	195657755.51039	0
bin	195657755.54372	0
bin	195657755.57705	0
bin	195657755.61039	0
bin	195657755.64372	0
bin	195657755.67705	0
bin	195657755.71039	0
scalar Throughput.destinationHost.ipv4.ip packetDropAddressResolutionFailed:count 0
attr interpolationmode none
attr source packetDropReasonIsAddressResolutionFailed(packetDrop)
attr title "packet drop: address resolution failed, count"
scalar Throughput.destinationHost.ipv4.ip packetDropAddressResolutionFailed:sum(packetBytes) 0
attr interpolationmode none
attr source packetDropReasonIsAddressResolutionFailed(packetDrop)
attr title "packet drop: address resolution failed, sum(packetBytes)"
scalar Throughput.destinationHost.ipv4.ip packetDropHopLimitReached:count 0
attr interpolationmode none
attr source packetDropReasonIsHopLimitReached(packetDrop)
attr title "packet drop: hop limit reached, count"
scalar Throughput.destinationHost.ipv4.ip packetDropHopLimitReached:sum(packetBytes) 0
attr interpolationmode none
attr source packetDropReasonIsHopLimitReached(packetDrop)
attr title "packet drop: hop limit reached, sum(packetBytes)"
scalar Throughput.destinationHost.ipv4.ip packetDropForwardingDisabled:count 0
attr interpolationmode none
attr source packetDropReasonIsForwardingDisabled(packetDrop)
attr title "packet drop: forwarding disabled, count"
scalar Throughput.destinationHost.ipv4.ip packetDropForwardingDisabled:sum(packetBytes) 0
attr interpolationmode none
attr source packetDropReasonIsForwardingDisabled(packetDrop)
attr title "packet drop: forwarding disabled, sum(packetBytes)"
scalar Throughput.destinationHost.ipv4.ip packetDropNoInterfaceFound:count 0
attr interpolationmode none
attr source packetDropReasonIsNoInterfaceFound(packetDrop)
attr title "packet drop: no interface found, count"
scalar Throughput.destinationHost.ipv4.ip packetDropNoInterfaceFound:sum(packetBytes) 0
attr interpolationmode none
attr source packetDropReasonIsNoInterfaceFound(packetDrop)
attr title "packet drop: no interface found, sum(packetBytes)"
scalar Throughput.destinationHost.ipv4.ip packetDropNoRouteFound:count 0
attr interpolationmode none
attr source packetDropReasonIsNoRouteFound(packetDrop)
attr title "packet drop: no route found, count"
scalar Throughput.destinationHost.ipv4.ip packetDropNoRouteFound:sum(packetBytes) 0
attr interpolationmode none
attr source packetDropReasonIsNoRouteFound(packetDrop)
attr title "packet drop: no route found, sum(packetBytes)"
scalar Throughput.destinationHost.ipv4.ip packetDropUndefined:count 0
attr interpolationmode none
attr source packetDropReasonIsUndefined(packetDrop)
attr title "packet drop: undefined, count"
scalar Throughput.destinationHost.ipv4.ip packetDropUndefined:sum(packetBytes) 0
attr interpolationmode none
attr source packetDropReasonIsUndefined(packetDrop)
attr title "packet drop: undefined, sum(packetBytes)"
scalar Throughput.destinationHost.udp droppedPkBadChecksum:count 0
attr interpolationmode none
attr title "packets dropped (checksum error), count"
scalar Throughput.destinationHost.udp droppedPkWrongPort:count 0
attr interpolationmode none
attr title "packets dropped (wrong port), count"
scalar Throughput.destinationHost.udp passedUpPk:count 5164
attr interpolationmode none
attr title "packets passed up, count"
scalar Throughput.destinationHost.udp rcvdPk:count 5164
attr interpolationmode none
attr source rcvdPk
attr title "packets received, count"
scalar Throughput.destinationHost.udp rcvdPk:sum(packetBytes) 557712
attr interpolationmode none
attr source rcvdPk
attr title "packets received, sum(packetBytes)"
scalar Throughput.destinationHost.udp sentPk:count 0
attr interpolationmode none
attr source sentPk
attr title "packets sent, count"
scalar Throughput.destinationHost.udp sentPk:sum(packetBytes) 0
attr interpolationmode none
attr source sentPk
attr title "packets sent, sum(packetBytes)"
scalar Throughput.destinationHost.app[0] rcvdPk:count 5164
attr interpolationmode none
attr source rcvdPk
attr title "packets received, count"
scalar Throughput.destinationHost.app[0] rcvdPk:sum(packetBytes) 516400
attr interpolationmode none
attr source rcvdPk
attr title "packets received, sum(packetBytes)"
scalar Throughput.destinationHost.app[0] throughput:mean 4133459.2195672
attr source throughput(rcvdPk)
attr title "throughput, mean"
attr unit bps
statistic Throughput.destinationHost.app[0] endToEndDelay:histogram
field count 5164
field mean 0.002946722198421
field stddev 0.00018193938083882
field min 0.000172003336
field max 0.003441492039
field sum 15.216873432646
field sqrsum 0.045010804041983
attr interpolationmode none
attr source messageAge(rcvdPk)
attr title "end-to-end delay, histogram"
attr unit s
bin	-inf	0
bin	-0.00139132597	0
bin	-0.0011828820625333	0
bin	-0.00097443815506667	0
bin	-0.0007659942476	0
bin	-0.00055755034013333	0
bin	-0.00034910643266667	0
bin	-0.0001406625252	0
bin	6.7781382266667e-05	1
bin	0.00027622528973333	1
bin	0.0004846691972	1
bin	0.00069311310466667	1
bin	0.00090155701213333	1
bin	0.0011100009196	1
bin	0.0013184448270667	1
bin	0.0015268887345333	1
bin	0.001735332642	1
bin	0.0019437765494667	2
bin	0.0021522204569333	0
bin	0.0023606643644	47
bin	0.0025691082718667	717
bin	0.0027775521793333	2251
bin	0.0029859960868	1809
bin	0.0031944399942667	323
bin	0.0034028839017333	6
bin	0.0036113278092	0
bin	0.0038197717166667	0
bin	0.0040282156241333	0
bin	0.0042366595316	0
bin	0.0044451034390667	0
bin	0.0046535473465333	0
bin	0.004861991254	0
scalar Throughput.radioMedium.propagation "Arrival computation count" 10328
scalar Throughput.radioMedium "transmission count" 10328
scalar Throughput.radioMedium "signal send count" 10328
scalar Throughput.radioMedium "reception computation count" 10328
scalar Throughput.radioMedium "interference computation count" 82626
scalar Throughput.radioMedium "reception decision computation count" 20656
scalar Throughput.radioMedium "listening decision computation count" 20658
scalar Throughput.radioMedium "reception cache hit" 93.75
attr unit %
scalar Throughput.radioMedium "interference cache hit" 75
attr unit %
scalar Throughput.radioMedium "noise cache hit" 0
attr unit %
scalar Throughput.radioMedium "snir cache hit" 80
attr unit %
scalar Throughput.radioMedium "reception decision cache hit" 0
attr unit %
scalar Throughput.radioMedium "reception result cache hit" 0
attr unit %

